# SMS for MODFLOW-USG, generated by Flopy.
0.001 0.0001 5000 100 2 1 1
0.7 0.08 0.05 0.0 20 2.0 0.2 0.0005
2 0 8 2 0 0.0001 0 0.001
