# UZF8 input file, prepared by MF5to6 on 7/28/2016 at 10:09:45.

BEGIN Options
  PRINT_INPUT
  PRINT_FLOWS
  SAVE_FLOWS
  SIMULATE_ET
  LINEAR_GWET
  SIMULATE_GWSEEP
  BOUNDNAMES
  OBS6 FILEIN uzfp2.uzf.obs
END Options

BEGIN Dimensions
  NUZFCELLS  116
  NTRAILWAVES  25
  NWAVESETS  20
END Dimensions

BEGIN PACKAGEDATA
  open/close uzfp2.uzf.data.ref
END PACKAGEDATA

BEGIN	PERIOD	1			
#	  id	finf	pet	extdp	extwc	ha hroot
  	1	1.00E-09	5.00E-08	15	0.100005 0.0 0.0 0.0
  	2	2.00E-09	5.00E-08	15	0.100005 0.0 0.0 0.0
  	3	2.00E-09	5.00E-08	15	0.20001 0.0 0.0 0.0
  	4	1.00E-09	5.00E-08	15	0.100005 0.0 0.0 0.0
  	5	2.00E-09	5.00E-08	15	0.100005 0.0 0.0 0.0
  	6	8.00E-09	5.00E-08	15	0.20001 0.0 0.0 0.0
  	7	8.00E-09	5.00E-08	15	0.20001 0.0 0.0 0.0
  	8	5.00E-09	5.00E-08	15	0.20001 0.0 0.0 0.0
  	9	5.00E-09	5.00E-08	15	0.20001 0.0 0.0 0.0
  	10	1.00E-09	5.00E-08	15	0.100005 0.0 0.0 0.0
  	11	1.00E-09	5.00E-08	15	0.100005 0.0 0.0 0.0
  	12	8.00E-09	5.00E-08	15	0.20001 0.0 0.0 0.0
  	13	8.00E-09	5.00E-08	15	0.20001 0.0 0.0 0.0
  	14	5.00E-09	5.00E-08	15	0.20001 0.0 0.0 0.0
  	15	5.00E-09	5.00E-08	15	0.20001 0.0 0.0 0.0
  	16	8.00E-09	5.00E-08	15	0.20001 0.0 0.0 0.0
  	17	5.00E-09	5.00E-08	15	0.20001 0.0 0.0 0.0
  	18	1.00E-09	5.00E-08	15	0.20001 0.0 0.0 0.0
  	19	1.00E-09	5.00E-08	15	0.100005 0.0 0.0 0.0
  	20	1.00E-09	5.00E-08	15	0.100005 0.0 0.0 0.0
  	21	1.00E-09	5.00E-08	15	0.100005 0.0 0.0 0.0
  	22	1.00E-09	5.00E-08	15	0.20001 0.0 0.0 0.0
  	23	1.00E-09	5.00E-08	15	0.20001 0.0 0.0 0.0
  	24	2.00E-09	5.00E-08	15	0.20001 0.0 0.0 0.0
  	25	8.00E-09	5.00E-08	15	0.20001 0.0 0.0 0.0
  	26	5.00E-09	5.00E-08	15	0.20001 0.0 0.0 0.0
  	27	1.00E-09	5.00E-08	15	0.20001 0.0 0.0 0.0
  	28	1.00E-09	5.00E-08	15	0.100005 0.0 0.0 0.0
  	29	1.00E-09	5.00E-08	15	0.100005 0.0 0.0 0.0
  	30	1.00E-09	5.00E-08	15	0.100005 0.0 0.0 0.0
  	31	1.00E-09	5.00E-08	15	0.100005 0.0 0.0 0.0
  	32	1.00E-09	5.00E-08	15	0.100005 0.0 0.0 0.0
  	33	1.00E-09	5.00E-08	15	0.100005 0.0 0.0 0.0
  	34	1.00E-09	5.00E-08	15	0.100005 0.0 0.0 0.0
  	35	8.00E-09	5.00E-08	15	0.20001 0.0 0.0 0.0
  	36	5.00E-09	5.00E-08	15	0.20001 0.0 0.0 0.0
  	37	5.00E-09	5.00E-08	15	0.20001 0.0 0.0 0.0
  	38	2.00E-09	5.00E-08	15	0.100005 0.0 0.0 0.0
  	39	2.00E-09	5.00E-08	15	0.100005 0.0 0.0 0.0
  	40	1.00E-09	5.00E-08	15	0.100005 0.0 0.0 0.0
  	41	1.00E-09	5.00E-08	15	0.100005 0.0 0.0 0.0
  	42	1.00E-09	5.00E-08	15	0.100005 0.0 0.0 0.0
  	43	1.00E-09	5.00E-08	15	0.20001 0.0 0.0 0.0
  	44	5.00E-09	5.00E-08	15	0.20001 0.0 0.0 0.0
  	45	8.00E-09	5.00E-08	15	0.20001 0.0 0.0 0.0
  	46	5.00E-09	5.00E-08	15	0.20001 0.0 0.0 0.0
  	47	5.00E-09	5.00E-08	15	0.20001 0.0 0.0 0.0
  	48	2.00E-09	5.00E-08	15	0.100005 0.0 0.0 0.0
  	49	2.00E-09	5.00E-08	15	0.100005 0.0 0.0 0.0
  	50	1.00E-09	5.00E-08	15	0.100005 0.0 0.0 0.0
  	51	1.00E-09	5.00E-08	15	0.100005 0.0 0.0 0.0
  	52	2.00E-09	5.00E-08	15	0.100005 0.0 0.0 0.0
  	53	2.00E-09	5.00E-08	15	0.20001 0.0 0.0 0.0
  	54	5.00E-09	5.00E-08	15	0.20001 0.0 0.0 0.0
  	55	5.00E-09	5.00E-08	15	0.20001 0.0 0.0 0.0
  	56	2.00E-09	5.00E-08	15	0.100005 0.0 0.0 0.0
  	57	2.00E-09	5.00E-08	15	0.100005 0.0 0.0 0.0
  	58	1.00E-09	5.00E-08	15	0.100005 0.0 0.0 0.0
  	59	1.00E-09	5.00E-08	15	0.100005 0.0 0.0 0.0
  	60	2.00E-09	5.00E-08	15	0.20001 0.0 0.0 0.0
  	61	5.00E-09	5.00E-08	15	0.20001 0.0 0.0 0.0
  	62	5.00E-09	5.00E-08	15	0.20001 0.0 0.0 0.0
  	63	5.00E-09	5.00E-08	15	0.20001 0.0 0.0 0.0
  	64	2.00E-09	5.00E-08	15	0.100005 0.0 0.0 0.0
  	65	2.00E-09	5.00E-08	15	0.100005 0.0 0.0 0.0
  	66	1.00E-09	5.00E-08	15	0.100005 0.0 0.0 0.0
  	67	1.00E-09	5.00E-08	15	0.100005 0.0 0.0 0.0
  	68	2.00E-09	5.00E-08	15	0.20001 0.0 0.0 0.0
  	69	5.00E-09	5.00E-08	15	0.20001 0.0 0.0 0.0
  	70	5.00E-09	5.00E-08	15	0.20001 0.0 0.0 0.0
  	71	5.00E-09	5.00E-08	15	0.20001 0.0 0.0 0.0
  	72	2.00E-09	5.00E-08	15	0.100005 0.0 0.0 0.0
  	73	2.00E-09	5.00E-08	15	0.100005 0.0 0.0 0.0
  	74	1.00E-09	5.00E-08	15	0.100005 0.0 0.0 0.0
  	75	1.00E-09	5.00E-08	15	0.100005 0.0 0.0 0.0
  	76	2.00E-09	5.00E-08	15	0.20001 0.0 0.0 0.0
  	77	5.00E-09	5.00E-08	15	0.20001 0.0 0.0 0.0
  	78	8.00E-09	5.00E-08	15	0.20001 0.0 0.0 0.0
  	79	1.00E-09	5.00E-08	15	0.20001 0.0 0.0 0.0
  	80	1.00E-09	5.00E-08	15	0.20001 0.0 0.0 0.0
  	81	1.00E-09	5.00E-08	15	0.100005 0.0 0.0 0.0
  	82	1.00E-09	5.00E-08	15	0.100005 0.0 0.0 0.0
  	83	1.00E-09	5.00E-08	15	0.100005 0.0 0.0 0.0
  	84	1.00E-09	5.00E-08	15	0.100005 0.0 0.0 0.0
  	85	2.00E-09	5.00E-08	15	0.20001 0.0 0.0 0.0
  	86	5.00E-09	5.00E-08	15	0.20001 0.0 0.0 0.0
  	87	1.00E-09	5.00E-08	15	0.20001 0.0 0.0 0.0
  	88	1.00E-09	5.00E-08	15	0.20001 0.0 0.0 0.0
  	89	1.00E-09	5.00E-08	15	0.100005 0.0 0.0 0.0
  	90	1.00E-09	5.00E-08	15	0.100005 0.0 0.0 0.0
  	91	1.00E-09	5.00E-08	15	0.100005 0.0 0.0 0.0
  	92	1.00E-09	5.00E-08	15	0.100005 0.0 0.0 0.0
  	93	1.00E-09	5.00E-08	15	0.100005 0.0 0.0 0.0
  	94	1.00E-09	5.00E-08	15	0.20001 0.0 0.0 0.0
  	95	2.00E-09	5.00E-08	15	0.20001 0.0 0.0 0.0
  	96	1.00E-09	5.00E-08	15	0.100005 0.0 0.0 0.0
  	97	1.00E-09	5.00E-08	15	0.100005 0.0 0.0 0.0
  	98	2.00E-09	5.00E-08	15	0.100005 0.0 0.0 0.0
  	99	2.00E-09	5.00E-08	15	0.100005 0.0 0.0 0.0
  	100	2.00E-09	5.00E-08	15	0.100005 0.0 0.0 0.0
  	101	2.00E-09	5.00E-08	15	0.100005 0.0 0.0 0.0
  	102	2.00E-09	5.00E-08	15	0.100005 0.0 0.0 0.0
  	103	1.00E-09	5.00E-08	15	0.100005 0.0 0.0 0.0
  	104	1.00E-09	5.00E-08	15	0.100005 0.0 0.0 0.0
  	105	2.00E-09	5.00E-08	15	0.20001 0.0 0.0 0.0
  	106	5.00E-09	5.00E-08	15	0.20001 0.0 0.0 0.0
  	107	5.00E-09	5.00E-08	15	0.20001 0.0 0.0 0.0
  	108	5.00E-09	5.00E-08	15	0.20001 0.0 0.0 0.0
  	109	5.00E-09	5.00E-08	15	0.20001 0.0 0.0 0.0
  	110	5.00E-09	5.00E-08	15	0.20001 0.0 0.0 0.0
  	111	2.00E-09	5.00E-08	15	0.20001 0.0 0.0 0.0
  	112	1.00E-09	5.00E-08	15	0.100005 0.0 0.0 0.0
  	113	8.00E-09	5.00E-08	15	0.20001 0.0 0.0 0.0
  	114	8.00E-09	5.00E-08	15	0.20001 0.0 0.0 0.0
  	115	8.00E-09	5.00E-08	15	0.20001 0.0 0.0 0.0
  	116	8.00E-09	5.00E-08	15	0.20001 0.0 0.0 0.0
END	PERIOD							
								
BEGIN	PERIOD	2	
  open/close uzfp2.uzf.per2.ref
END	PERIOD							
								
BEGIN	PERIOD	3				
  open/close uzfp2.uzf.per3.ref
END	PERIOD							
								
BEGIN	PERIOD	4				
#  id	finf	pet	extdp	extwc	ha hroot
  	1	2.00E-07	5.00E-08	15	0.100005 0.0 0.0 0.0
  	2	4.00E-08	5.00E-08	15	0.100005 0.0 0.0 0.0
  	3	4.00E-08	5.00E-08	15	0.20001 0.0 0.0 0.0
  	4	2.00E-08	5.00E-08	15	0.100005 0.0 0.0 0.0
  	5	4.00E-08	5.00E-08	15	0.100005 0.0 0.0 0.0
  	6	1.60E-07	5.00E-08	15	0.20001 0.0 0.0 0.0
  	7	1.60E-07	5.00E-08	15	0.20001 0.0 0.0 0.0
  	8	1.00E-07	5.00E-08	15	0.20001 0.0 0.0 0.0
  	9	1.00E-07	5.00E-08	15	0.20001 0.0 0.0 0.0
  	10	2.00E-08	5.00E-08	15	0.100005 0.0 0.0 0.0
  	11	2.00E-08	5.00E-08	15	0.100005 0.0 0.0 0.0
  	12	1.60E-07	5.00E-08	15	0.20001 0.0 0.0 0.0
  	13	1.60E-07	5.00E-08	15	0.20001 0.0 0.0 0.0
  	14	1.00E-07	5.00E-08	15	0.20001 0.0 0.0 0.0
  	15	1.00E-07	5.00E-08	15	0.20001 0.0 0.0 0.0
  	16	1.60E-07	5.00E-08	15	0.20001 0.0 0.0 0.0
  	17	1.00E-07	5.00E-08	15	0.20001 0.0 0.0 0.0
  	18	2.00E-08	5.00E-08	15	0.20001 0.0 0.0 0.0
  	19	2.00E-08	5.00E-08	15	0.100005 0.0 0.0 0.0
  	20	2.00E-08	5.00E-08	15	0.100005 0.0 0.0 0.0
  	21	2.00E-08	5.00E-08	15	0.100005 0.0 0.0 0.0
  	22	2.00E-08	5.00E-08	15	0.20001 0.0 0.0 0.0
  	23	2.00E-08	5.00E-08	15	0.20001 0.0 0.0 0.0
  	24	4.00E-08	5.00E-08	15	0.20001 0.0 0.0 0.0
  	25	1.60E-07	5.00E-08	15	0.20001 0.0 0.0 0.0
  	26	1.00E-07	5.00E-08	15	0.20001 0.0 0.0 0.0
  	27	2.00E-08	5.00E-08	15	0.20001 0.0 0.0 0.0
  	28	2.00E-08	5.00E-08	15	0.100005 0.0 0.0 0.0
  	29	2.00E-08	5.00E-08	15	0.100005 0.0 0.0 0.0
  	30	2.00E-08	5.00E-08	15	0.100005 0.0 0.0 0.0
  	31	2.00E-08	5.00E-08	15	0.100005 0.0 0.0 0.0
  	32	2.00E-08	5.00E-08	15	0.100005 0.0 0.0 0.0
  	33	2.00E-08	5.00E-08	15	0.100005 0.0 0.0 0.0
  	34	2.00E-08	5.00E-08	15	0.100005 0.0 0.0 0.0
  	35	1.60E-07	5.00E-08	15	0.20001 0.0 0.0 0.0
  	36	1.00E-07	5.00E-08	15	0.20001 0.0 0.0 0.0
  	37	1.00E-07	5.00E-08	15	0.20001 0.0 0.0 0.0
  	38	4.00E-08	5.00E-08	15	0.100005 0.0 0.0 0.0
  	39	4.00E-08	5.00E-08	15	0.100005 0.0 0.0 0.0
  	40	2.00E-08	5.00E-08	15	0.100005 0.0 0.0 0.0
  	41	2.00E-08	5.00E-08	15	0.100005 0.0 0.0 0.0
  	42	2.00E-08	5.00E-08	15	0.100005 0.0 0.0 0.0
  	43	2.00E-08	5.00E-08	15	0.20001 0.0 0.0 0.0
  	44	1.00E-07	5.00E-08	15	0.20001 0.0 0.0 0.0
  	45	1.60E-07	5.00E-08	15	0.20001 0.0 0.0 0.0
  	46	1.00E-07	5.00E-08	15	0.20001 0.0 0.0 0.0
  	47	1.00E-07	5.00E-08	15	0.20001 0.0 0.0 0.0
  	48	4.00E-08	5.00E-08	15	0.100005 0.0 0.0 0.0
  	49	4.00E-08	5.00E-08	15	0.100005 0.0 0.0 0.0
  	50	2.00E-08	5.00E-08	15	0.100005 0.0 0.0 0.0
  	51	2.00E-08	5.00E-08	15	0.100005 0.0 0.0 0.0
  	52	4.00E-08	5.00E-08	15	0.100005 0.0 0.0 0.0
  	53	4.00E-08	5.00E-08	15	0.20001 0.0 0.0 0.0
  	54	1.00E-07	5.00E-08	15	0.20001 0.0 0.0 0.0
  	55	1.00E-07	5.00E-08	15	0.20001 0.0 0.0 0.0
  	56	4.00E-08	5.00E-08	15	0.100005 0.0 0.0 0.0
  	57	4.00E-08	5.00E-08	15	0.100005 0.0 0.0 0.0
  	58	2.00E-08	5.00E-08	15	0.100005 0.0 0.0 0.0
  	59	2.00E-08	5.00E-08	15	0.100005 0.0 0.0 0.0
  	60	4.00E-08	5.00E-08	15	0.20001 0.0 0.0 0.0
  	61	1.00E-07	5.00E-08	15	0.20001 0.0 0.0 0.0
  	62	1.00E-07	5.00E-08	15	0.20001 0.0 0.0 0.0
  	63	1.00E-07	5.00E-08	15	0.20001 0.0 0.0 0.0
  	64	4.00E-08	5.00E-08	15	0.100005 0.0 0.0 0.0
  	65	4.00E-08	5.00E-08	15	0.100005 0.0 0.0 0.0
  	66	2.00E-08	5.00E-08	15	0.100005 0.0 0.0 0.0
  	67	2.00E-08	5.00E-08	15	0.100005 0.0 0.0 0.0
  	68	4.00E-08	5.00E-08	15	0.20001 0.0 0.0 0.0
  	69	1.00E-07	5.00E-08	15	0.20001 0.0 0.0 0.0
  	70	1.00E-07	5.00E-08	15	0.20001 0.0 0.0 0.0
  	71	1.00E-07	5.00E-08	15	0.20001 0.0 0.0 0.0
  	72	4.00E-08	5.00E-08	15	0.100005 0.0 0.0 0.0
  	73	4.00E-08	5.00E-08	15	0.100005 0.0 0.0 0.0
  	74	2.00E-08	5.00E-08	15	0.100005 0.0 0.0 0.0
  	75	2.00E-08	5.00E-08	15	0.100005 0.0 0.0 0.0
  	76	4.00E-08	5.00E-08	15	0.20001 0.0 0.0 0.0
  	77	1.00E-07	5.00E-08	15	0.20001 0.0 0.0 0.0
  	78	1.60E-07	5.00E-08	15	0.20001 0.0 0.0 0.0
  	79	2.00E-08	5.00E-08	15	0.20001 0.0 0.0 0.0
  	80	2.00E-08	5.00E-08	15	0.20001 0.0 0.0 0.0
  	81	2.00E-08	5.00E-08	15	0.100005 0.0 0.0 0.0
  	82	2.00E-08	5.00E-08	15	0.100005 0.0 0.0 0.0
  	83	2.00E-08	5.00E-08	15	0.100005 0.0 0.0 0.0
  	84	2.00E-08	5.00E-08	15	0.100005 0.0 0.0 0.0
  	85	4.00E-08	5.00E-08	15	0.20001 0.0 0.0 0.0
  	86	1.00E-07	5.00E-08	15	0.20001 0.0 0.0 0.0
  	87	2.00E-08	5.00E-08	15	0.20001 0.0 0.0 0.0
  	88	2.00E-08	5.00E-08	15	0.20001 0.0 0.0 0.0
  	89	2.00E-08	5.00E-08	15	0.100005 0.0 0.0 0.0
  	90	2.00E-08	5.00E-08	15	0.100005 0.0 0.0 0.0
  	91	2.00E-08	5.00E-08	15	0.100005 0.0 0.0 0.0
  	92	2.00E-08	5.00E-08	15	0.100005 0.0 0.0 0.0
  	93	2.00E-08	5.00E-08	15	0.100005 0.0 0.0 0.0
  	94	2.00E-08	5.00E-08	15	0.20001 0.0 0.0 0.0
  	95	4.00E-08	5.00E-08	15	0.20001 0.0 0.0 0.0
  	96	2.00E-08	5.00E-08	15	0.100005 0.0 0.0 0.0
  	97	2.00E-08	5.00E-08	15	0.100005 0.0 0.0 0.0
  	98	4.00E-08	5.00E-08	15	0.100005 0.0 0.0 0.0
  	99	4.00E-08	5.00E-08	15	0.100005 0.0 0.0 0.0
  	100	4.00E-08	5.00E-08	15	0.100005 0.0 0.0 0.0
  	101	4.00E-08	5.00E-08	15	0.100005 0.0 0.0 0.0
  	102	4.00E-08	5.00E-08	15	0.100005 0.0 0.0 0.0
  	103	2.00E-08	5.00E-08	15	0.100005 0.0 0.0 0.0
  	104	2.00E-08	5.00E-08	15	0.100005 0.0 0.0 0.0
  	105	4.00E-08	5.00E-08	15	0.20001 0.0 0.0 0.0
  	106	1.00E-07	5.00E-08	15	0.20001 0.0 0.0 0.0
  	107	1.00E-07	5.00E-08	15	0.20001 0.0 0.0 0.0
  	108	1.00E-07	5.00E-08	15	0.20001 0.0 0.0 0.0
  	109	1.00E-07	5.00E-08	15	0.20001 0.0 0.0 0.0
  	110	1.00E-07	5.00E-08	15	0.20001 0.0 0.0 0.0
  	111	4.00E-08	5.00E-08	15	0.20001 0.0 0.0 0.0
  	112	2.00E-08	5.00E-08	15	0.100005 0.0 0.0 0.0
  	113	1.60E-07	5.00E-08	15	0.20001 0.0 0.0 0.0
  	114	1.60E-07	5.00E-08	15	0.20001 0.0 0.0 0.0
  	115	1.60E-07	5.00E-08	15	0.20001 0.0 0.0 0.0
  	116	1.60E-07	5.00E-08	15	0.20001 0.0 0.0 0.0
END	PERIOD							
								
BEGIN	PERIOD	5				
#  id	finf	pet	extdp	extwc	ha hroot
  	1	5.00E-07	5.00E-08	15	0.100005 0.0 0.0 0.0
  	2	1.00E-08	5.00E-08	15	0.100005 0.0 0.0 0.0
  	3	1.00E-08	5.00E-08	15	0.20001 0.0 0.0 0.0
  	4	5.00E-09	5.00E-08	15	0.100005 0.0 0.0 0.0
  	5	1.00E-08	5.00E-08	15	0.100005 0.0 0.0 0.0
  	6	4.00E-08	5.00E-08	15	0.20001 0.0 0.0 0.0
  	7	4.00E-08	5.00E-08	15	0.20001 0.0 0.0 0.0
  	8	2.50E-08	5.00E-08	15	0.20001 0.0 0.0 0.0
  	9	2.50E-08	5.00E-08	15	0.20001 0.0 0.0 0.0
  	10	5.00E-09	5.00E-08	15	0.100005 0.0 0.0 0.0
  	11	5.00E-09	5.00E-08	15	0.100005 0.0 0.0 0.0
  	12	4.00E-08	5.00E-08	15	0.20001 0.0 0.0 0.0
  	13	4.00E-08	5.00E-08	15	0.20001 0.0 0.0 0.0
  	14	2.50E-08	5.00E-08	15	0.20001 0.0 0.0 0.0
  	15	2.50E-08	5.00E-08	15	0.20001 0.0 0.0 0.0
  	16	4.00E-08	5.00E-08	15	0.20001 0.0 0.0 0.0
  	17	2.50E-08	5.00E-08	15	0.20001 0.0 0.0 0.0
  	18	5.00E-09	5.00E-08	15	0.20001 0.0 0.0 0.0
  	19	5.00E-09	5.00E-08	15	0.100005 0.0 0.0 0.0
  	20	5.00E-09	5.00E-08	15	0.100005 0.0 0.0 0.0
  	21	5.00E-09	5.00E-08	15	0.100005 0.0 0.0 0.0
  	22	5.00E-09	5.00E-08	15	0.20001 0.0 0.0 0.0
  	23	5.00E-09	5.00E-08	15	0.20001 0.0 0.0 0.0
  	24	1.00E-08	5.00E-08	15	0.20001 0.0 0.0 0.0
  	25	4.00E-08	5.00E-08	15	0.20001 0.0 0.0 0.0
  	26	2.50E-08	5.00E-08	15	0.20001 0.0 0.0 0.0
  	27	5.00E-09	5.00E-08	15	0.20001 0.0 0.0 0.0
  	28	5.00E-09	5.00E-08	15	0.100005 0.0 0.0 0.0
  	29	5.00E-09	5.00E-08	15	0.100005 0.0 0.0 0.0
  	30	5.00E-09	5.00E-08	15	0.100005 0.0 0.0 0.0
  	31	5.00E-09	5.00E-08	15	0.100005 0.0 0.0 0.0
  	32	5.00E-09	5.00E-08	15	0.100005 0.0 0.0 0.0
  	33	5.00E-09	5.00E-08	15	0.100005 0.0 0.0 0.0
  	34	5.00E-09	5.00E-08	15	0.100005 0.0 0.0 0.0
  	35	4.00E-08	5.00E-08	15	0.20001 0.0 0.0 0.0
  	36	2.50E-08	5.00E-08	15	0.20001 0.0 0.0 0.0
  	37	2.50E-08	5.00E-08	15	0.20001 0.0 0.0 0.0
  	38	1.00E-08	5.00E-08	15	0.100005 0.0 0.0 0.0
  	39	1.00E-08	5.00E-08	15	0.100005 0.0 0.0 0.0
  	40	5.00E-09	5.00E-08	15	0.100005 0.0 0.0 0.0
  	41	5.00E-09	5.00E-08	15	0.100005 0.0 0.0 0.0
  	42	5.00E-09	5.00E-08	15	0.100005 0.0 0.0 0.0
  	43	5.00E-09	5.00E-08	15	0.20001 0.0 0.0 0.0
  	44	2.50E-08	5.00E-08	15	0.20001 0.0 0.0 0.0
  	45	4.00E-08	5.00E-08	15	0.20001 0.0 0.0 0.0
  	46	2.50E-08	5.00E-08	15	0.20001 0.0 0.0 0.0
  	47	2.50E-08	5.00E-08	15	0.20001 0.0 0.0 0.0
  	48	1.00E-08	5.00E-08	15	0.100005 0.0 0.0 0.0
  	49	1.00E-08	5.00E-08	15	0.100005 0.0 0.0 0.0
  	50	5.00E-09	5.00E-08	15	0.100005 0.0 0.0 0.0
  	51	5.00E-09	5.00E-08	15	0.100005 0.0 0.0 0.0
  	52	1.00E-08	5.00E-08	15	0.100005 0.0 0.0 0.0
  	53	1.00E-08	5.00E-08	15	0.20001 0.0 0.0 0.0
  	54	2.50E-08	5.00E-08	15	0.20001 0.0 0.0 0.0
  	55	2.50E-08	5.00E-08	15	0.20001 0.0 0.0 0.0
  	56	1.00E-08	5.00E-08	15	0.100005 0.0 0.0 0.0
  	57	1.00E-08	5.00E-08	15	0.100005 0.0 0.0 0.0
  	58	5.00E-09	5.00E-08	15	0.100005 0.0 0.0 0.0
  	59	5.00E-09	5.00E-08	15	0.100005 0.0 0.0 0.0
  	60	1.00E-08	5.00E-08	15	0.20001 0.0 0.0 0.0
  	61	2.50E-08	5.00E-08	15	0.20001 0.0 0.0 0.0
  	62	2.50E-08	5.00E-08	15	0.20001 0.0 0.0 0.0
  	63	2.50E-08	5.00E-08	15	0.20001 0.0 0.0 0.0
  	64	1.00E-08	5.00E-08	15	0.100005 0.0 0.0 0.0
  	65	1.00E-08	5.00E-08	15	0.100005 0.0 0.0 0.0
  	66	5.00E-09	5.00E-08	15	0.100005 0.0 0.0 0.0
  	67	5.00E-09	5.00E-08	15	0.100005 0.0 0.0 0.0
  	68	1.00E-08	5.00E-08	15	0.20001 0.0 0.0 0.0
  	69	2.50E-08	5.00E-08	15	0.20001 0.0 0.0 0.0
  	70	2.50E-08	5.00E-08	15	0.20001 0.0 0.0 0.0
  	71	2.50E-08	5.00E-08	15	0.20001 0.0 0.0 0.0
  	72	1.00E-08	5.00E-08	15	0.100005 0.0 0.0 0.0
  	73	1.00E-08	5.00E-08	15	0.100005 0.0 0.0 0.0
  	74	5.00E-09	5.00E-08	15	0.100005 0.0 0.0 0.0
  	75	5.00E-09	5.00E-08	15	0.100005 0.0 0.0 0.0
  	76	1.00E-08	5.00E-08	15	0.20001 0.0 0.0 0.0
  	77	2.50E-08	5.00E-08	15	0.20001 0.0 0.0 0.0
  	78	4.00E-08	5.00E-08	15	0.20001 0.0 0.0 0.0
  	79	5.00E-09	5.00E-08	15	0.20001 0.0 0.0 0.0
  	80	5.00E-09	5.00E-08	15	0.20001 0.0 0.0 0.0
  	81	5.00E-09	5.00E-08	15	0.100005 0.0 0.0 0.0
  	82	5.00E-09	5.00E-08	15	0.100005 0.0 0.0 0.0
  	83	5.00E-09	5.00E-08	15	0.100005 0.0 0.0 0.0
  	84	5.00E-09	5.00E-08	15	0.100005 0.0 0.0 0.0
  	85	1.00E-08	5.00E-08	15	0.20001 0.0 0.0 0.0
  	86	2.50E-08	5.00E-08	15	0.20001 0.0 0.0 0.0
  	87	5.00E-09	5.00E-08	15	0.20001 0.0 0.0 0.0
  	88	5.00E-09	5.00E-08	15	0.20001 0.0 0.0 0.0
  	89	5.00E-09	5.00E-08	15	0.100005 0.0 0.0 0.0
  	90	5.00E-09	5.00E-08	15	0.100005 0.0 0.0 0.0
  	91	5.00E-09	5.00E-08	15	0.100005 0.0 0.0 0.0
  	92	5.00E-09	5.00E-08	15	0.100005 0.0 0.0 0.0
  	93	5.00E-09	5.00E-08	15	0.100005 0.0 0.0 0.0
  	94	5.00E-09	5.00E-08	15	0.20001 0.0 0.0 0.0
  	95	1.00E-08	5.00E-08	15	0.20001 0.0 0.0 0.0
  	96	5.00E-09	5.00E-08	15	0.100005 0.0 0.0 0.0
  	97	5.00E-09	5.00E-08	15	0.100005 0.0 0.0 0.0
  	98	1.00E-08	5.00E-08	15	0.100005 0.0 0.0 0.0
  	99	1.00E-08	5.00E-08	15	0.100005 0.0 0.0 0.0
  	100	1.00E-08	5.00E-08	15	0.100005 0.0 0.0 0.0
  	101	1.00E-08	5.00E-08	15	0.100005 0.0 0.0 0.0
  	102	1.00E-08	5.00E-08	15	0.100005 0.0 0.0 0.0
  	103	5.00E-09	5.00E-08	15	0.100005 0.0 0.0 0.0
  	104	5.00E-09	5.00E-08	15	0.100005 0.0 0.0 0.0
  	105	1.00E-08	5.00E-08	15	0.20001 0.0 0.0 0.0
  	106	2.50E-08	5.00E-08	15	0.20001 0.0 0.0 0.0
  	107	2.50E-08	5.00E-08	15	0.20001 0.0 0.0 0.0
  	108	2.50E-08	5.00E-08	15	0.20001 0.0 0.0 0.0
  	109	2.50E-08	5.00E-08	15	0.20001 0.0 0.0 0.0
  	110	2.50E-08	5.00E-08	15	0.20001 0.0 0.0 0.0
  	111	1.00E-08	5.00E-08	15	0.20001 0.0 0.0 0.0
  	112	5.00E-09	5.00E-08	15	0.100005 0.0 0.0 0.0
  	113	4.00E-08	5.00E-08	15	0.20001 0.0 0.0 0.0
  	114	4.00E-08	5.00E-08	15	0.20001 0.0 0.0 0.0
  	115	4.00E-08	5.00E-08	15	0.20001 0.0 0.0 0.0
  	116	4.00E-08	5.00E-08	15	0.20001 0.0 0.0 0.0
END	PERIOD							
								
BEGIN	PERIOD	6			
#  id	finf	pet	extdp	extwc	ha hroot
  	1	1.00E-07	5.00E-08	15	0.100005 0.0 0.0 0.0
  	2	2.00E-08	5.00E-08	15	0.100005 0.0 0.0 0.0
  	3	2.00E-08	5.00E-08	15	0.20001 0.0 0.0 0.0
  	4	1.00E-08	5.00E-08	15	0.100005 0.0 0.0 0.0
  	5	2.00E-08	5.00E-08	15	0.100005 0.0 0.0 0.0
  	6	8.00E-08	5.00E-08	15	0.20001 0.0 0.0 0.0
  	7	8.00E-08	5.00E-08	15	0.20001 0.0 0.0 0.0
  	8	5.00E-08	5.00E-08	15	0.20001 0.0 0.0 0.0
  	9	5.00E-08	5.00E-08	15	0.20001 0.0 0.0 0.0
  	10	1.00E-08	5.00E-08	15	0.100005 0.0 0.0 0.0
  	11	1.00E-08	5.00E-08	15	0.100005 0.0 0.0 0.0
  	12	8.00E-08	5.00E-08	15	0.20001 0.0 0.0 0.0
  	13	8.00E-08	5.00E-08	15	0.20001 0.0 0.0 0.0
  	14	5.00E-08	5.00E-08	15	0.20001 0.0 0.0 0.0
  	15	5.00E-08	5.00E-08	15	0.20001 0.0 0.0 0.0
  	16	8.00E-08	5.00E-08	15	0.20001 0.0 0.0 0.0
  	17	5.00E-08	5.00E-08	15	0.20001 0.0 0.0 0.0
  	18	1.00E-08	5.00E-08	15	0.20001 0.0 0.0 0.0
  	19	1.00E-08	5.00E-08	15	0.100005 0.0 0.0 0.0
  	20	1.00E-08	5.00E-08	15	0.100005 0.0 0.0 0.0
  	21	1.00E-08	5.00E-08	15	0.100005 0.0 0.0 0.0
  	22	1.00E-08	5.00E-08	15	0.20001 0.0 0.0 0.0
  	23	1.00E-08	5.00E-08	15	0.20001 0.0 0.0 0.0
  	24	2.00E-08	5.00E-08	15	0.20001 0.0 0.0 0.0
  	25	8.00E-08	5.00E-08	15	0.20001 0.0 0.0 0.0
  	26	5.00E-08	5.00E-08	15	0.20001 0.0 0.0 0.0
  	27	1.00E-08	5.00E-08	15	0.20001 0.0 0.0 0.0
  	28	1.00E-08	5.00E-08	15	0.100005 0.0 0.0 0.0
  	29	1.00E-08	5.00E-08	15	0.100005 0.0 0.0 0.0
  	30	1.00E-08	5.00E-08	15	0.100005 0.0 0.0 0.0
  	31	1.00E-08	5.00E-08	15	0.100005 0.0 0.0 0.0
  	32	1.00E-08	5.00E-08	15	0.100005 0.0 0.0 0.0
  	33	1.00E-08	5.00E-08	15	0.100005 0.0 0.0 0.0
  	34	1.00E-08	5.00E-08	15	0.100005 0.0 0.0 0.0
  	35	8.00E-08	5.00E-08	15	0.20001 0.0 0.0 0.0
  	36	5.00E-08	5.00E-08	15	0.20001 0.0 0.0 0.0
  	37	5.00E-08	5.00E-08	15	0.20001 0.0 0.0 0.0
  	38	2.00E-08	5.00E-08	15	0.100005 0.0 0.0 0.0
  	39	2.00E-08	5.00E-08	15	0.100005 0.0 0.0 0.0
  	40	1.00E-08	5.00E-08	15	0.100005 0.0 0.0 0.0
  	41	1.00E-08	5.00E-08	15	0.100005 0.0 0.0 0.0
  	42	1.00E-08	5.00E-08	15	0.100005 0.0 0.0 0.0
  	43	1.00E-08	5.00E-08	15	0.20001 0.0 0.0 0.0
  	44	5.00E-08	5.00E-08	15	0.20001 0.0 0.0 0.0
  	45	8.00E-08	5.00E-08	15	0.20001 0.0 0.0 0.0
  	46	5.00E-08	5.00E-08	15	0.20001 0.0 0.0 0.0
  	47	5.00E-08	5.00E-08	15	0.20001 0.0 0.0 0.0
  	48	2.00E-08	5.00E-08	15	0.100005 0.0 0.0 0.0
  	49	2.00E-08	5.00E-08	15	0.100005 0.0 0.0 0.0
  	50	1.00E-08	5.00E-08	15	0.100005 0.0 0.0 0.0
  	51	1.00E-08	5.00E-08	15	0.100005 0.0 0.0 0.0
  	52	2.00E-08	5.00E-08	15	0.100005 0.0 0.0 0.0
  	53	2.00E-08	5.00E-08	15	0.20001 0.0 0.0 0.0
  	54	5.00E-08	5.00E-08	15	0.20001 0.0 0.0 0.0
  	55	5.00E-08	5.00E-08	15	0.20001 0.0 0.0 0.0
  	56	2.00E-08	5.00E-08	15	0.100005 0.0 0.0 0.0
  	57	2.00E-08	5.00E-08	15	0.100005 0.0 0.0 0.0
  	58	1.00E-08	5.00E-08	15	0.100005 0.0 0.0 0.0
  	59	1.00E-08	5.00E-08	15	0.100005 0.0 0.0 0.0
  	60	2.00E-08	5.00E-08	15	0.20001 0.0 0.0 0.0
  	61	5.00E-08	5.00E-08	15	0.20001 0.0 0.0 0.0
  	62	5.00E-08	5.00E-08	15	0.20001 0.0 0.0 0.0
  	63	5.00E-08	5.00E-08	15	0.20001 0.0 0.0 0.0
  	64	2.00E-08	5.00E-08	15	0.100005 0.0 0.0 0.0
  	65	2.00E-08	5.00E-08	15	0.100005 0.0 0.0 0.0
  	66	1.00E-08	5.00E-08	15	0.100005 0.0 0.0 0.0
  	67	1.00E-08	5.00E-08	15	0.100005 0.0 0.0 0.0
  	68	2.00E-08	5.00E-08	15	0.20001 0.0 0.0 0.0
  	69	5.00E-08	5.00E-08	15	0.20001 0.0 0.0 0.0
  	70	5.00E-08	5.00E-08	15	0.20001 0.0 0.0 0.0
  	71	5.00E-08	5.00E-08	15	0.20001 0.0 0.0 0.0
  	72	2.00E-08	5.00E-08	15	0.100005 0.0 0.0 0.0
  	73	2.00E-08	5.00E-08	15	0.100005 0.0 0.0 0.0
  	74	1.00E-08	5.00E-08	15	0.100005 0.0 0.0 0.0
  	75	1.00E-08	5.00E-08	15	0.100005 0.0 0.0 0.0
  	76	2.00E-08	5.00E-08	15	0.20001 0.0 0.0 0.0
  	77	5.00E-08	5.00E-08	15	0.20001 0.0 0.0 0.0
  	78	8.00E-08	5.00E-08	15	0.20001 0.0 0.0 0.0
  	79	1.00E-08	5.00E-08	15	0.20001 0.0 0.0 0.0
  	80	1.00E-08	5.00E-08	15	0.20001 0.0 0.0 0.0
  	81	1.00E-08	5.00E-08	15	0.100005 0.0 0.0 0.0
  	82	1.00E-08	5.00E-08	15	0.100005 0.0 0.0 0.0
  	83	1.00E-08	5.00E-08	15	0.100005 0.0 0.0 0.0
  	84	1.00E-08	5.00E-08	15	0.100005 0.0 0.0 0.0
  	85	2.00E-08	5.00E-08	15	0.20001 0.0 0.0 0.0
  	86	5.00E-08	5.00E-08	15	0.20001 0.0 0.0 0.0
  	87	1.00E-08	5.00E-08	15	0.20001 0.0 0.0 0.0
  	88	1.00E-08	5.00E-08	15	0.20001 0.0 0.0 0.0
  	89	1.00E-08	5.00E-08	15	0.100005 0.0 0.0 0.0
  	90	1.00E-08	5.00E-08	15	0.100005 0.0 0.0 0.0
  	91	1.00E-08	5.00E-08	15	0.100005 0.0 0.0 0.0
  	92	1.00E-08	5.00E-08	15	0.100005 0.0 0.0 0.0
  	93	1.00E-08	5.00E-08	15	0.100005 0.0 0.0 0.0
  	94	1.00E-08	5.00E-08	15	0.20001 0.0 0.0 0.0
  	95	2.00E-08	5.00E-08	15	0.20001 0.0 0.0 0.0
  	96	1.00E-08	5.00E-08	15	0.100005 0.0 0.0 0.0
  	97	1.00E-08	5.00E-08	15	0.100005 0.0 0.0 0.0
  	98	2.00E-08	5.00E-08	15	0.100005 0.0 0.0 0.0
  	99	2.00E-08	5.00E-08	15	0.100005 0.0 0.0 0.0
  	100	2.00E-08	5.00E-08	15	0.100005 0.0 0.0 0.0
  	101	2.00E-08	5.00E-08	15	0.100005 0.0 0.0 0.0
  	102	2.00E-08	5.00E-08	15	0.100005 0.0 0.0 0.0
  	103	1.00E-08	5.00E-08	15	0.100005 0.0 0.0 0.0
  	104	1.00E-08	5.00E-08	15	0.100005 0.0 0.0 0.0
  	105	2.00E-08	5.00E-08	15	0.20001 0.0 0.0 0.0
  	106	5.00E-08	5.00E-08	15	0.20001 0.0 0.0 0.0
  	107	5.00E-08	5.00E-08	15	0.20001 0.0 0.0 0.0
  	108	5.00E-08	5.00E-08	15	0.20001 0.0 0.0 0.0
  	109	5.00E-08	5.00E-08	15	0.20001 0.0 0.0 0.0
  	110	5.00E-08	5.00E-08	15	0.20001 0.0 0.0 0.0
  	111	2.00E-08	5.00E-08	15	0.20001 0.0 0.0 0.0
  	112	1.00E-08	5.00E-08	15	0.100005 0.0 0.0 0.0
  	113	8.00E-08	5.00E-08	15	0.20001 0.0 0.0 0.0
  	114	8.00E-08	5.00E-08	15	0.20001 0.0 0.0 0.0
  	115	8.00E-08	5.00E-08	15	0.20001 0.0 0.0 0.0
  	116	8.00E-08	5.00E-08	15	0.20001 0.0 0.0 0.0
END	PERIOD							
								
BEGIN	PERIOD	7					
#  id	finf	pet	extdp	extwc	ha hroot
  	1	3.00E-07	5.00E-08	15	0.100005 0.0 0.0 0.0
  	2	6.00E-09	5.00E-08	15	0.100005 0.0 0.0 0.0
  	3	6.00E-09	5.00E-08	15	0.20001 0.0 0.0 0.0
  	4	3.00E-09	5.00E-08	15	0.100005 0.0 0.0 0.0
  	5	6.00E-09	5.00E-08	15	0.100005 0.0 0.0 0.0
  	6	2.40E-08	5.00E-08	15	0.20001 0.0 0.0 0.0
  	7	2.40E-08	5.00E-08	15	0.20001 0.0 0.0 0.0
  	8	1.50E-08	5.00E-08	15	0.20001 0.0 0.0 0.0
  	9	1.50E-08	5.00E-08	15	0.20001 0.0 0.0 0.0
  	10	3.00E-09	5.00E-08	15	0.100005 0.0 0.0 0.0
  	11	3.00E-09	5.00E-08	15	0.100005 0.0 0.0 0.0
  	12	2.40E-08	5.00E-08	15	0.20001 0.0 0.0 0.0
  	13	2.40E-08	5.00E-08	15	0.20001 0.0 0.0 0.0
  	14	1.50E-08	5.00E-08	15	0.20001 0.0 0.0 0.0
  	15	1.50E-08	5.00E-08	15	0.20001 0.0 0.0 0.0
  	16	2.40E-08	5.00E-08	15	0.20001 0.0 0.0 0.0
  	17	1.50E-08	5.00E-08	15	0.20001 0.0 0.0 0.0
  	18	3.00E-09	5.00E-08	15	0.20001 0.0 0.0 0.0
  	19	3.00E-09	5.00E-08	15	0.100005 0.0 0.0 0.0
  	20	3.00E-09	5.00E-08	15	0.100005 0.0 0.0 0.0
  	21	3.00E-09	5.00E-08	15	0.100005 0.0 0.0 0.0
  	22	3.00E-09	5.00E-08	15	0.20001 0.0 0.0 0.0
  	23	3.00E-09	5.00E-08	15	0.20001 0.0 0.0 0.0
  	24	6.00E-09	5.00E-08	15	0.20001 0.0 0.0 0.0
  	25	2.40E-08	5.00E-08	15	0.20001 0.0 0.0 0.0
  	26	1.50E-08	5.00E-08	15	0.20001 0.0 0.0 0.0
  	27	3.00E-09	5.00E-08	15	0.20001 0.0 0.0 0.0
  	28	3.00E-09	5.00E-08	15	0.100005 0.0 0.0 0.0
  	29	3.00E-09	5.00E-08	15	0.100005 0.0 0.0 0.0
  	30	3.00E-09	5.00E-08	15	0.100005 0.0 0.0 0.0
  	31	3.00E-09	5.00E-08	15	0.100005 0.0 0.0 0.0
  	32	3.00E-09	5.00E-08	15	0.100005 0.0 0.0 0.0
  	33	3.00E-09	5.00E-08	15	0.100005 0.0 0.0 0.0
  	34	3.00E-09	5.00E-08	15	0.100005 0.0 0.0 0.0
  	35	2.40E-08	5.00E-08	15	0.20001 0.0 0.0 0.0
  	36	1.50E-08	5.00E-08	15	0.20001 0.0 0.0 0.0
  	37	1.50E-08	5.00E-08	15	0.20001 0.0 0.0 0.0
  	38	6.00E-09	5.00E-08	15	0.100005 0.0 0.0 0.0
  	39	6.00E-09	5.00E-08	15	0.100005 0.0 0.0 0.0
  	40	3.00E-09	5.00E-08	15	0.100005 0.0 0.0 0.0
  	41	3.00E-09	5.00E-08	15	0.100005 0.0 0.0 0.0
  	42	3.00E-09	5.00E-08	15	0.100005 0.0 0.0 0.0
  	43	3.00E-09	5.00E-08	15	0.20001 0.0 0.0 0.0
  	44	1.50E-08	5.00E-08	15	0.20001 0.0 0.0 0.0
  	45	2.40E-08	5.00E-08	15	0.20001 0.0 0.0 0.0
  	46	1.50E-08	5.00E-08	15	0.20001 0.0 0.0 0.0
  	47	1.50E-08	5.00E-08	15	0.20001 0.0 0.0 0.0
  	48	6.00E-09	5.00E-08	15	0.100005 0.0 0.0 0.0
  	49	6.00E-09	5.00E-08	15	0.100005 0.0 0.0 0.0
  	50	3.00E-09	5.00E-08	15	0.100005 0.0 0.0 0.0
  	51	3.00E-09	5.00E-08	15	0.100005 0.0 0.0 0.0
  	52	6.00E-09	5.00E-08	15	0.100005 0.0 0.0 0.0
  	53	6.00E-09	5.00E-08	15	0.20001 0.0 0.0 0.0
  	54	1.50E-08	5.00E-08	15	0.20001 0.0 0.0 0.0
  	55	1.50E-08	5.00E-08	15	0.20001 0.0 0.0 0.0
  	56	6.00E-09	5.00E-08	15	0.100005 0.0 0.0 0.0
  	57	6.00E-09	5.00E-08	15	0.100005 0.0 0.0 0.0
  	58	3.00E-09	5.00E-08	15	0.100005 0.0 0.0 0.0
  	59	3.00E-09	5.00E-08	15	0.100005 0.0 0.0 0.0
  	60	6.00E-09	5.00E-08	15	0.20001 0.0 0.0 0.0
  	61	1.50E-08	5.00E-08	15	0.20001 0.0 0.0 0.0
  	62	1.50E-08	5.00E-08	15	0.20001 0.0 0.0 0.0
  	63	1.50E-08	5.00E-08	15	0.20001 0.0 0.0 0.0
  	64	6.00E-09	5.00E-08	15	0.100005 0.0 0.0 0.0
  	65	6.00E-09	5.00E-08	15	0.100005 0.0 0.0 0.0
  	66	3.00E-09	5.00E-08	15	0.100005 0.0 0.0 0.0
  	67	3.00E-09	5.00E-08	15	0.100005 0.0 0.0 0.0
  	68	6.00E-09	5.00E-08	15	0.20001 0.0 0.0 0.0
  	69	1.50E-08	5.00E-08	15	0.20001 0.0 0.0 0.0
  	70	1.50E-08	5.00E-08	15	0.20001 0.0 0.0 0.0
  	71	1.50E-08	5.00E-08	15	0.20001 0.0 0.0 0.0
  	72	6.00E-09	5.00E-08	15	0.100005 0.0 0.0 0.0
  	73	6.00E-09	5.00E-08	15	0.100005 0.0 0.0 0.0
  	74	3.00E-09	5.00E-08	15	0.100005 0.0 0.0 0.0
  	75	3.00E-09	5.00E-08	15	0.100005 0.0 0.0 0.0
  	76	6.00E-09	5.00E-08	15	0.20001 0.0 0.0 0.0
  	77	1.50E-08	5.00E-08	15	0.20001 0.0 0.0 0.0
  	78	2.40E-08	5.00E-08	15	0.20001 0.0 0.0 0.0
  	79	3.00E-09	5.00E-08	15	0.20001 0.0 0.0 0.0
  	80	3.00E-09	5.00E-08	15	0.20001 0.0 0.0 0.0
  	81	3.00E-09	5.00E-08	15	0.100005 0.0 0.0 0.0
  	82	3.00E-09	5.00E-08	15	0.100005 0.0 0.0 0.0
  	83	3.00E-09	5.00E-08	15	0.100005 0.0 0.0 0.0
  	84	3.00E-09	5.00E-08	15	0.100005 0.0 0.0 0.0
  	85	6.00E-09	5.00E-08	15	0.20001 0.0 0.0 0.0
  	86	1.50E-08	5.00E-08	15	0.20001 0.0 0.0 0.0
  	87	3.00E-09	5.00E-08	15	0.20001 0.0 0.0 0.0
  	88	3.00E-09	5.00E-08	15	0.20001 0.0 0.0 0.0
  	89	3.00E-09	5.00E-08	15	0.100005 0.0 0.0 0.0
  	90	3.00E-09	5.00E-08	15	0.100005 0.0 0.0 0.0
  	91	3.00E-09	5.00E-08	15	0.100005 0.0 0.0 0.0
  	92	3.00E-09	5.00E-08	15	0.100005 0.0 0.0 0.0
  	93	3.00E-09	5.00E-08	15	0.100005 0.0 0.0 0.0
  	94	3.00E-09	5.00E-08	15	0.20001 0.0 0.0 0.0
  	95	6.00E-09	5.00E-08	15	0.20001 0.0 0.0 0.0
  	96	3.00E-09	5.00E-08	15	0.100005 0.0 0.0 0.0
  	97	3.00E-09	5.00E-08	15	0.100005 0.0 0.0 0.0
  	98	6.00E-09	5.00E-08	15	0.100005 0.0 0.0 0.0
  	99	6.00E-09	5.00E-08	15	0.100005 0.0 0.0 0.0
  	100	6.00E-09	5.00E-08	15	0.100005 0.0 0.0 0.0
  	101	6.00E-09	5.00E-08	15	0.100005 0.0 0.0 0.0
  	102	6.00E-09	5.00E-08	15	0.100005 0.0 0.0 0.0
  	103	3.00E-09	5.00E-08	15	0.100005 0.0 0.0 0.0
  	104	3.00E-09	5.00E-08	15	0.100005 0.0 0.0 0.0
  	105	6.00E-09	5.00E-08	15	0.20001 0.0 0.0 0.0
  	106	1.50E-08	5.00E-08	15	0.20001 0.0 0.0 0.0
  	107	1.50E-08	5.00E-08	15	0.20001 0.0 0.0 0.0
  	108	1.50E-08	5.00E-08	15	0.20001 0.0 0.0 0.0
  	109	1.50E-08	5.00E-08	15	0.20001 0.0 0.0 0.0
  	110	1.50E-08	5.00E-08	15	0.20001 0.0 0.0 0.0
  	111	6.00E-09	5.00E-08	15	0.20001 0.0 0.0 0.0
  	112	3.00E-09	5.00E-08	15	0.100005 0.0 0.0 0.0
  	113	2.40E-08	5.00E-08	15	0.20001 0.0 0.0 0.0
  	114	2.40E-08	5.00E-08	15	0.20001 0.0 0.0 0.0
  	115	2.40E-08	5.00E-08	15	0.20001 0.0 0.0 0.0
  	116	2.40E-08	5.00E-08	15	0.20001 0.0 0.0 0.0
END	PERIOD							
								
BEGIN	PERIOD	8				
#  id	finf	pet	extdp	extwc	ha hroot
  	1	5.00E-07	5.00E-08	15	0.100005 0.0 0.0 0.0
  	2	1.00E-08	5.00E-08	15	0.100005 0.0 0.0 0.0
  	3	1.00E-08	5.00E-08	15	0.20001 0.0 0.0 0.0
  	4	5.00E-09	5.00E-08	15	0.100005 0.0 0.0 0.0
  	5	1.00E-08	5.00E-08	15	0.100005 0.0 0.0 0.0
  	6	4.00E-08	5.00E-08	15	0.20001 0.0 0.0 0.0
  	7	4.00E-08	5.00E-08	15	0.20001 0.0 0.0 0.0
  	8	2.50E-08	5.00E-08	15	0.20001 0.0 0.0 0.0
  	9	2.50E-08	5.00E-08	15	0.20001 0.0 0.0 0.0
  	10	5.00E-09	5.00E-08	15	0.100005 0.0 0.0 0.0
  	11	5.00E-09	5.00E-08	15	0.100005 0.0 0.0 0.0
  	12	4.00E-08	5.00E-08	15	0.20001 0.0 0.0 0.0
  	13	4.00E-08	5.00E-08	15	0.20001 0.0 0.0 0.0
  	14	2.50E-08	5.00E-08	15	0.20001 0.0 0.0 0.0
  	15	2.50E-08	5.00E-08	15	0.20001 0.0 0.0 0.0
  	16	4.00E-08	5.00E-08	15	0.20001 0.0 0.0 0.0
  	17	2.50E-08	5.00E-08	15	0.20001 0.0 0.0 0.0
  	18	5.00E-09	5.00E-08	15	0.20001 0.0 0.0 0.0
  	19	5.00E-09	5.00E-08	15	0.100005 0.0 0.0 0.0
  	20	5.00E-09	5.00E-08	15	0.100005 0.0 0.0 0.0
  	21	5.00E-09	5.00E-08	15	0.100005 0.0 0.0 0.0
  	22	5.00E-09	5.00E-08	15	0.20001 0.0 0.0 0.0
  	23	5.00E-09	5.00E-08	15	0.20001 0.0 0.0 0.0
  	24	1.00E-08	5.00E-08	15	0.20001 0.0 0.0 0.0
  	25	4.00E-08	5.00E-08	15	0.20001 0.0 0.0 0.0
  	26	2.50E-08	5.00E-08	15	0.20001 0.0 0.0 0.0
  	27	5.00E-09	5.00E-08	15	0.20001 0.0 0.0 0.0
  	28	5.00E-09	5.00E-08	15	0.100005 0.0 0.0 0.0
  	29	5.00E-09	5.00E-08	15	0.100005 0.0 0.0 0.0
  	30	5.00E-09	5.00E-08	15	0.100005 0.0 0.0 0.0