BEGIN options
  HHFORMULATION  LHS
END options

