BEGIN options
END options

BEGIN griddata
  diffc
    CONSTANT       0.57024000
END griddata

