BEGIN griddata
  strt
    CONSTANT      35.00000000
END griddata

