# LPF for MODFLOW, generated by Flopy.
        53    -1.e30         0  NOVFC CONSTANTCV
         1         1         1         1
         0         0         0         0
         1         1         1         1
         0         0         0         0
         1         1         1         1
  0.500000         1         0
CONSTANT    1.000000E+00                           #hk Layer 1                    
CONSTANT    1.000000E+00                           #vka Layer 1                   
CONSTANT    1.000000E-05                           #ss Layer 1                    
CONSTANT    1.000000E-01                           #sy Layer 1                    
CONSTANT   -1.000000E-05                           #wetdry Layer 1                
CONSTANT    1.000000E+00                           #hk Layer 2                    
CONSTANT    1.000000E+00                           #vka Layer 2                   
CONSTANT    1.000000E-05                           #ss Layer 2                    
CONSTANT    1.000000E-01                           #sy Layer 2                    
CONSTANT   -1.000000E-05                           #wetdry Layer 2                
CONSTANT    1.000000E+00                           #hk Layer 3                    
CONSTANT    1.000000E+00                           #vka Layer 3                   
CONSTANT    1.000000E-05                           #ss Layer 3                    
CONSTANT    1.000000E-01                           #sy Layer 3                    
CONSTANT   -1.000000E-05                           #wetdry Layer 3                
CONSTANT    1.000000E+00                           #hk Layer 4                    
CONSTANT    1.000000E+00                           #vka Layer 4                   
CONSTANT    1.000000E-05                           #ss Layer 4                    
CONSTANT    1.000000E-01                           #sy Layer 4                    
CONSTANT   -1.000000E-05                           #wetdry Layer 4                
