BEGIN options
  XORIGIN    2500.00000000
  YORIGIN    2500.00000000
END options

BEGIN dimensions
  NLAY  5
  NROW  30
  NCOL  42
END dimensions

BEGIN griddata
  delr
    INTERNAL  FACTOR  1.0
         166.66666667     166.66666667     166.66666667     166.66666667     166.66666667     166.66666667     166.66666667     166.66666667     166.66666667     166.66666667     166.66666667     166.66666667     166.66666667     166.66666667     166.66666667     166.66666667     166.66666667     166.66666667     166.66666667     166.66666667
       166.66666667     166.66666667     166.66666667     166.66666667     166.66666667     166.66666667     166.66666667     166.66666667     166.66666667     166.66666667     166.66666667     166.66666667     166.66666667     166.66666667     166.66666667     166.66666667     166.66666667     166.66666667     166.66666667     166.66666667
       166.66666667     166.66666667
  delc
    INTERNAL  FACTOR  1.0
         166.66666667     166.66666667     166.66666667     166.66666667     166.66666667     166.66666667     166.66666667     166.66666667     166.66666667     166.66666667     166.66666667     166.66666667     166.66666667     166.66666667     166.66666667     166.66666667     166.66666667     166.66666667     166.66666667     166.66666667
       166.66666667     166.66666667     166.66666667     166.66666667     166.66666667     166.66666667     166.66666667     166.66666667     166.66666667     166.66666667
  top
    INTERNAL  FACTOR  1.0
         100.00000000     100.00000000     100.00000000     100.00000000     100.00000000     100.00000000     100.00000000     100.00000000     100.00000000     100.00000000     100.00000000     100.00000000     100.00000000     100.00000000     100.00000000     100.00000000     100.00000000     100.00000000     100.00000000     100.00000000
       100.00000000     100.00000000     100.00000000     100.00000000     100.00000000     100.00000000     100.00000000     100.00000000     100.00000000     100.00000000     100.00000000     100.00000000     100.00000000     100.00000000     100.00000000     100.00000000     100.00000000     100.00000000     100.00000000     100.00000000
       100.00000000     100.00000000
       100.00000000     100.00000000     100.00000000     100.00000000     100.00000000     100.00000000     100.00000000     100.00000000     100.00000000     100.00000000     100.00000000     100.00000000     100.00000000     100.00000000     100.00000000     100.00000000     100.00000000     100.00000000     100.00000000     100.00000000
       100.00000000     100.00000000     100.00000000     100.00000000     100.00000000     100.00000000     100.00000000     100.00000000     100.00000000     100.00000000     100.00000000     100.00000000     100.00000000     100.00000000     100.00000000     100.00000000     100.00000000     100.00000000     100.00000000     100.00000000
       100.00000000     100.00000000
       100.00000000     100.00000000     100.00000000     100.00000000     100.00000000     100.00000000     100.00000000     100.00000000     100.00000000     100.00000000     100.00000000     100.00000000     100.00000000     100.00000000     100.00000000     100.00000000     100.00000000     100.00000000     100.00000000     100.00000000
       100.00000000     100.00000000     100.00000000     100.00000000     100.00000000     100.00000000     100.00000000     100.00000000     100.00000000     100.00000000     100.00000000     100.00000000     100.00000000     100.00000000     100.00000000     100.00000000     100.00000000     100.00000000     100.00000000     100.00000000
       100.00000000     100.00000000
       100.00000000     100.00000000     100.00000000     100.00000000     100.00000000     100.00000000     100.00000000     100.00000000     100.00000000     100.00000000     100.00000000     100.00000000     100.00000000     100.00000000     100.00000000     100.00000000     100.00000000     100.00000000     100.00000000     100.00000000
       100.00000000     100.00000000     100.00000000     100.00000000     100.00000000     100.00000000     100.00000000     100.00000000     100.00000000     100.00000000     100.00000000     100.00000000     100.00000000     100.00000000     100.00000000     100.00000000     100.00000000     100.00000000     100.00000000     100.00000000
       100.00000000     100.00000000
       100.00000000     100.00000000     100.00000000     100.00000000     100.00000000     100.00000000     100.00000000     100.00000000     100.00000000     100.00000000     100.00000000     100.00000000     100.00000000     100.00000000     100.00000000     100.00000000     100.00000000     100.00000000     100.00000000     100.00000000
       100.00000000     100.00000000     100.00000000     100.00000000     100.00000000     100.00000000     100.00000000     100.00000000     100.00000000     100.00000000     100.00000000     100.00000000     100.00000000     100.00000000     100.00000000     100.00000000     100.00000000     100.00000000     100.00000000     100.00000000
       100.00000000     100.00000000
       100.00000000     100.00000000     100.00000000     100.00000000     100.00000000     100.00000000     100.00000000     100.00000000     100.00000000     100.00000000     100.00000000     100.00000000     100.00000000     100.00000000     100.00000000     100.00000000     100.00000000     100.00000000     100.00000000     100.00000000
       100.00000000     100.00000000     100.00000000     100.00000000     100.00000000     100.00000000     100.00000000     100.00000000     100.00000000     100.00000000     100.00000000     100.00000000     100.00000000     100.00000000     100.00000000     100.00000000     100.00000000     100.00000000     100.00000000     100.00000000
       100.00000000     100.00000000
       100.00000000     100.00000000     100.00000000     100.00000000     100.00000000     100.00000000     100.00000000     100.00000000     100.00000000     100.00000000     100.00000000     100.00000000     100.00000000     100.00000000     100.00000000     100.00000000     100.00000000     100.00000000     100.00000000     100.00000000
       100.00000000     100.00000000     100.00000000     100.00000000     100.00000000     100.00000000     100.00000000     100.00000000     100.00000000     100.00000000     100.00000000     100.00000000     100.00000000     100.00000000     100.00000000     100.00000000     100.00000000     100.00000000     100.00000000     100.00000000
       100.00000000     100.00000000
       100.00000000     100.00000000     100.00000000     100.00000000     100.00000000     100.00000000     100.00000000     100.00000000     100.00000000     100.00000000     100.00000000     100.00000000     100.00000000     100.00000000     100.00000000     100.00000000     100.00000000     100.00000000     100.00000000     100.00000000
       100.00000000     100.00000000     100.00000000     100.00000000     100.00000000     100.00000000     100.00000000     100.00000000     100.00000000     100.00000000     100.00000000     100.00000000     100.00000000     100.00000000     100.00000000     100.00000000     100.00000000     100.00000000     100.00000000     100.00000000
       100.00000000     100.00000000
       100.00000000     100.00000000     100.00000000     100.00000000     100.00000000     100.00000000     100.00000000     100.00000000     100.00000000     100.00000000     100.00000000     100.00000000     100.00000000     100.00000000     100.00000000     100.00000000     100.00000000     100.00000000     100.00000000     100.00000000
       100.00000000     100.00000000     100.00000000     100.00000000     100.00000000     100.00000000     100.00000000     100.00000000     100.00000000     100.00000000     100.00000000     100.00000000     100.00000000     100.00000000     100.00000000     100.00000000     100.00000000     100.00000000     100.00000000     100.00000000
       100.00000000     100.00000000
       100.00000000     100.00000000     100.00000000     100.00000000     100.00000000     100.00000000     100.00000000     100.00000000     100.00000000     100.00000000     100.00000000     100.00000000     100.00000000     100.00000000     100.00000000     100.00000000     100.00000000     100.00000000     100.00000000     100.00000000
       100.00000000     100.00000000     100.00000000     100.00000000     100.00000000     100.00000000     100.00000000     100.00000000     100.00000000     100.00000000     100.00000000     100.00000000     100.00000000     100.00000000     100.00000000     100.00000000     100.00000000     100.00000000     100.00000000     100.00000000
       100.00000000     100.00000000
       100.00000000     100.00000000     100.00000000     100.00000000     100.00000000     100.00000000     100.00000000     100.00000000     100.00000000     100.00000000     100.00000000     100.00000000     100.00000000     100.00000000     100.00000000     100.00000000     100.00000000     100.00000000     100.00000000     100.00000000
       100.00000000     100.00000000     100.00000000     100.00000000     100.00000000     100.00000000     100.00000000     100.00000000     100.00000000     100.00000000     100.00000000     100.00000000     100.00000000     100.00000000     100.00000000     100.00000000     100.00000000     100.00000000     100.00000000     100.00000000
       100.00000000     100.00000000
       100.00000000     100.00000000     100.00000000     100.00000000     100.00000000     100.00000000     100.00000000     100.00000000     100.00000000     100.00000000     100.00000000     100.00000000     100.00000000     100.00000000     100.00000000     100.00000000     100.00000000     100.00000000     100.00000000     100.00000000
       100.00000000     100.00000000     100.00000000     100.00000000     100.00000000     100.00000000     100.00000000     100.00000000     100.00000000     100.00000000     100.00000000     100.00000000     100.00000000     100.00000000     100.00000000     100.00000000     100.00000000     100.00000000     100.00000000     100.00000000
       100.00000000     100.00000000
       100.00000000     100.00000000     100.00000000     100.00000000     100.00000000     100.00000000     100.00000000     100.00000000     100.00000000     100.00000000     100.00000000     100.00000000     100.00000000     100.00000000     100.00000000     100.00000000     100.00000000     100.00000000     100.00000000     100.00000000
       100.00000000     100.00000000     100.00000000     100.00000000     100.00000000     100.00000000     100.00000000     100.00000000     100.00000000     100.00000000     100.00000000     100.00000000     100.00000000     100.00000000     100.00000000     100.00000000     100.00000000     100.00000000     100.00000000     100.00000000
       100.00000000     100.00000000
       100.00000000     100.00000000     100.00000000     100.00000000     100.00000000     100.00000000     100.00000000     100.00000000     100.00000000     100.00000000     100.00000000     100.00000000     100.00000000     100.00000000     100.00000000     100.00000000     100.00000000     100.00000000     100.00000000     100.00000000
       100.00000000     100.00000000     100.00000000     100.00000000     100.00000000     100.00000000     100.00000000     100.00000000     100.00000000     100.00000000     100.00000000     100.00000000     100.00000000     100.00000000     100.00000000     100.00000000     100.00000000     100.00000000     100.00000000     100.00000000
       100.00000000     100.00000000
       100.00000000     100.00000000     100.00000000     100.00000000     100.00000000     100.00000000     100.00000000     100.00000000     100.00000000     100.00000000     100.00000000     100.00000000     100.00000000     100.00000000     100.00000000     100.00000000     100.00000000     100.00000000     100.00000000     100.00000000
       100.00000000     100.00000000     100.00000000     100.00000000     100.00000000     100.00000000     100.00000000     100.00000000     100.00000000     100.00000000     100.00000000     100.00000000     100.00000000     100.00000000     100.00000000     100.00000000     100.00000000     100.00000000     100.00000000     100.00000000
       100.00000000     100.00000000
       100.00000000     100.00000000     100.00000000     100.00000000     100.00000000     100.00000000     100.00000000     100.00000000     100.00000000     100.00000000     100.00000000     100.00000000     100.00000000     100.00000000     100.00000000     100.00000000     100.00000000     100.00000000     100.00000000     100.00000000
       100.00000000     100.00000000     100.00000000     100.00000000     100.00000000     100.00000000     100.00000000     100.00000000     100.00000000     100.00000000     100.00000000     100.00000000     100.00000000     100.00000000     100.00000000     100.00000000     100.00000000     100.00000000     100.00000000     100.00000000
       100.00000000     100.00000000
       100.00000000     100.00000000     100.00000000     100.00000000     100.00000000     100.00000000     100.00000000     100.00000000     100.00000000     100.00000000     100.00000000     100.00000000     100.00000000     100.00000000     100.00000000     100.00000000     100.00000000     100.00000000     100.00000000     100.00000000
       100.00000000     100.00000000     100.00000000     100.00000000     100.00000000     100.00000000     100.00000000     100.00000000     100.00000000     100.00000000     100.00000000     100.00000000     100.00000000     100.00000000     100.00000000     100.00000000     100.00000000     100.00000000     100.00000000     100.00000000
       100.00000000     100.00000000
       100.00000000     100.00000000     100.00000000     100.00000000     100.00000000     100.00000000     100.00000000     100.00000000     100.00000000     100.00000000     100.00000000     100.00000000     100.00000000     100.00000000     100.00000000     100.00000000     100.00000000     100.00000000     100.00000000     100.00000000
       100.00000000     100.00000000     100.00000000     100.00000000     100.00000000     100.00000000     100.00000000     100.00000000     100.00000000     100.00000000     100.00000000     100.00000000     100.00000000     100.00000000     100.00000000     100.00000000     100.00000000     100.00000000     100.00000000     100.00000000
       100.00000000     100.00000000
       100.00000000     100.00000000     100.00000000     100.00000000     100.00000000     100.00000000     100.00000000     100.00000000     100.00000000     100.00000000     100.00000000     100.00000000     100.00000000     100.00000000     100.00000000     100.00000000     100.00000000     100.00000000     100.00000000     100.00000000
       100.00000000     100.00000000     100.00000000     100.00000000     100.00000000     100.00000000     100.00000000     100.00000000     100.00000000     100.00000000     100.00000000     100.00000000     100.00000000     100.00000000     100.00000000     100.00000000     100.00000000     100.00000000     100.00000000     100.00000000
       100.00000000     100.00000000
       100.00000000     100.00000000     100.00000000     100.00000000     100.00000000     100.00000000     100.00000000     100.00000000     100.00000000     100.00000000     100.00000000     100.00000000     100.00000000     100.00000000     100.00000000     100.00000000     100.00000000     100.00000000     100.00000000     100.00000000
       100.00000000     100.00000000     100.00000000     100.00000000     100.00000000     100.00000000     100.00000000     100.00000000     100.00000000     100.00000000     100.00000000     100.00000000     100.00000000     100.00000000     100.00000000     100.00000000     100.00000000     100.00000000     100.00000000     100.00000000
       100.00000000     100.00000000
       100.00000000     100.00000000     100.00000000     100.00000000     100.00000000     100.00000000     100.00000000     100.00000000     100.00000000     100.00000000     100.00000000     100.00000000     100.00000000     100.00000000     100.00000000     100.00000000     100.00000000     100.00000000     100.00000000     100.00000000
       100.00000000     100.00000000     100.00000000     100.00000000     100.00000000     100.00000000     100.00000000     100.00000000     100.00000000     100.00000000     100.00000000     100.00000000     100.00000000     100.00000000     100.00000000     100.00000000     100.00000000     100.00000000     100.00000000     100.00000000
       100.00000000     100.00000000
       100.00000000     100.00000000     100.00000000     100.00000000     100.00000000     100.00000000     100.00000000     100.00000000     100.00000000     100.00000000     100.00000000     100.00000000     100.00000000     100.00000000     100.00000000     100.00000000     100.00000000     100.00000000     100.00000000     100.00000000
       100.00000000     100.00000000     100.00000000     100.00000000     100.00000000     100.00000000     100.00000000     100.00000000     100.00000000     100.00000000     100.00000000     100.00000000     100.00000000     100.00000000     100.00000000     100.00000000     100.00000000     100.00000000     100.00000000     100.00000000
       100.00000000     100.00000000
       100.00000000     100.00000000     100.00000000     100.00000000     100.00000000     100.00000000     100.00000000     100.00000000     100.00000000     100.00000000     100.00000000     100.00000000     100.00000000     100.00000000     100.00000000     100.00000000     100.00000000     100.00000000     100.00000000     100.00000000
       100.00000000     100.00000000     100.00000000     100.00000000     100.00000000     100.00000000     100.00000000     100.00000000     100.00000000     100.00000000     100.00000000     100.00000000     100.00000000     100.00000000     100.00000000     100.00000000     100.00000000     100.00000000     100.00000000     100.00000000
       100.00000000     100.00000000
       100.00000000     100.00000000     100.00000000     100.00000000     100.00000000     100.00000000     100.00000000     100.00000000     100.00000000     100.00000000     100.00000000     100.00000000     100.00000000     100.00000000     100.00000000     100.00000000     100.00000000     100.00000000     100.00000000     100.00000000
       100.00000000     100.00000000     100.00000000     100.00000000     100.00000000     100.00000000     100.00000000     100.00000000     100.00000000     100.00000000     100.00000000     100.00000000     100.00000000     100.00000000     100.00000000     100.00000000     100.00000000     100.00000000     100.00000000     100.00000000
       100.00000000     100.00000000
       100.00000000     100.00000000     100.00000000     100.00000000     100.00000000     100.00000000     100.00000000     100.00000000     100.00000000     100.00000000     100.00000000     100.00000000     100.00000000     100.00000000     100.00000000     100.00000000     100.00000000     100.00000000     100.00000000     100.00000000
       100.00000000     100.00000000     100.00000000     100.00000000     100.00000000     100.00000000     100.00000000     100.00000000     100.00000000     100.00000000     100.00000000     100.00000000     100.00000000     100.00000000     100.00000000     100.00000000     100.00000000     100.00000000     100.00000000     100.00000000
       100.00000000     100.00000000
       100.00000000     100.00000000     100.00000000     100.00000000     100.00000000     100.00000000     100.00000000     100.00000000     100.00000000     100.00000000     100.00000000     100.00000000     100.00000000     100.00000000     100.00000000     100.00000000     100.00000000     100.00000000     100.00000000     100.00000000
       100.00000000     100.00000000     100.00000000     100.00000000     100.00000000     100.00000000     100.00000000     100.00000000     100.00000000     100.00000000     100.00000000     100.00000000     100.00000000     100.00000000     100.00000000     100.00000000     100.00000000     100.00000000     100.00000000     100.00000000
       100.00000000     100.00000000
       100.00000000     100.00000000     100.00000000     100.00000000     100.00000000     100.00000000     100.00000000     100.00000000     100.00000000     100.00000000     100.00000000     100.00000000     100.00000000     100.00000000     100.00000000     100.00000000     100.00000000     100.00000000     100.00000000     100.00000000
       100.00000000     100.00000000     100.00000000     100.00000000     100.00000000     100.00000000     100.00000000     100.00000000     100.00000000     100.00000000     100.00000000     100.00000000     100.00000000     100.00000000     100.00000000     100.00000000     100.00000000     100.00000000     100.00000000     100.00000000
       100.00000000     100.00000000
       100.00000000     100.00000000     100.00000000     100.00000000     100.00000000     100.00000000     100.00000000     100.00000000     100.00000000     100.00000000     100.00000000     100.00000000     100.00000000     100.00000000     100.00000000     100.00000000     100.00000000     100.00000000     100.00000000     100.00000000
       100.00000000     100.00000000     100.00000000     100.00000000     100.00000000     100.00000000     100.00000000     100.00000000     100.00000000     100.00000000     100.00000000     100.00000000     100.00000000     100.00000000     100.00000000     100.00000000     100.00000000     100.00000000     100.00000000     100.00000000
       100.00000000     100.00000000
       100.00000000     100.00000000     100.00000000     100.00000000     100.00000000     100.00000000     100.00000000     100.00000000     100.00000000     100.00000000     100.00000000     100.00000000     100.00000000     100.00000000     100.00000000     100.00000000     100.00000000     100.00000000     100.00000000     100.00000000
       100.00000000     100.00000000     100.00000000     100.00000000     100.00000000     100.00000000     100.00000000     100.00000000     100.00000000     100.00000000     100.00000000     100.00000000     100.00000000     100.00000000     100.00000000     100.00000000     100.00000000     100.00000000     100.00000000     100.00000000
       100.00000000     100.00000000
       100.00000000     100.00000000     100.00000000     100.00000000     100.00000000     100.00000000     100.00000000     100.00000000     100.00000000     100.00000000     100.00000000     100.00000000     100.00000000     100.00000000     100.00000000     100.00000000     100.00000000     100.00000000     100.00000000     100.00000000
       100.00000000     100.00000000     100.00000000     100.00000000     100.00000000     100.00000000     100.00000000     100.00000000     100.00000000     100.00000000     100.00000000     100.00000000     100.00000000     100.00000000     100.00000000     100.00000000     100.00000000     100.00000000     100.00000000     100.00000000
       100.00000000     100.00000000
  botm  LAYERED
    INTERNAL  FACTOR  1.0
          -5.00000000      -5.00000000      -5.00000000      -5.00000000      -5.00000000      -5.00000000      -5.00000000      -5.00000000      -5.00000000      -5.00000000      -5.00000000      -5.00000000      -5.00000000      -5.00000000      -5.00000000      -5.00000000      -5.00000000      -5.00000000      -5.00000000      -5.00000000
          -5.00000000      -5.00000000      -5.00000000      -5.00000000      -5.00000000      -5.00000000      -5.00000000      -5.00000000      -5.00000000      -5.00000000      -5.00000000      -5.00000000      -5.00000000      -5.00000000      -5.00000000      -5.00000000      -5.00000000      -5.00000000      -5.00000000      -5.00000000
          -5.00000000      -5.00000000
          -5.00000000      -5.00000000      -5.00000000      -5.00000000      -5.00000000      -5.00000000      -5.00000000      -5.00000000      -5.00000000      -5.00000000      -5.00000000      -5.00000000      -5.00000000      -5.00000000      -5.00000000      -5.00000000      -5.00000000      -5.00000000      -5.00000000      -5.00000000
          -5.00000000      -5.00000000      -5.00000000      -5.00000000      -5.00000000      -5.00000000      -5.00000000      -5.00000000      -5.00000000      -5.00000000      -5.00000000      -5.00000000      -5.00000000      -5.00000000      -5.00000000      -5.00000000      -5.00000000      -5.00000000      -5.00000000      -5.00000000
          -5.00000000      -5.00000000
          -5.00000000      -5.00000000      -5.00000000      -5.00000000      -5.00000000      -5.00000000      -5.00000000      -5.00000000      -5.00000000      -5.00000000      -5.00000000      -5.00000000      -5.00000000      -5.00000000      -5.00000000      -5.00000000      -5.00000000      -5.00000000      -5.00000000      -5.00000000
          -5.00000000      -5.00000000      -5.00000000      -5.00000000      -5.00000000      -5.00000000      -5.00000000      -5.00000000      -5.00000000      -5.00000000      -5.00000000      -5.00000000      -5.00000000      -5.00000000      -5.00000000      -5.00000000      -5.00000000      -5.00000000      -5.00000000      -5.00000000
          -5.00000000      -5.00000000
          -5.00000000      -5.00000000      -5.00000000      -5.00000000      -5.00000000      -5.00000000      -5.00000000      -5.00000000      -5.00000000      -5.00000000      -5.00000000      -5.00000000      -5.00000000      -5.00000000      -5.00000000      -5.00000000      -5.00000000      -5.00000000      -5.00000000      -5.00000000
          -5.00000000      -5.00000000      -5.00000000      -5.00000000      -5.00000000      -5.00000000      -5.00000000      -5.00000000      -5.00000000      -5.00000000      -5.00000000      -5.00000000      -5.00000000      -5.00000000      -5.00000000      -5.00000000      -5.00000000      -5.00000000      -5.00000000      -5.00000000
          -5.00000000      -5.00000000
          -5.00000000      -5.00000000      -5.00000000      -5.00000000      -5.00000000      -5.00000000      -5.00000000      -5.00000000      -5.00000000      -5.00000000      -5.00000000      -5.00000000      -5.00000000      -5.00000000      -5.00000000      -5.00000000      -5.00000000      -5.00000000      -5.00000000      -5.00000000
          -5.00000000      -5.00000000      -5.00000000      -5.00000000      -5.00000000      -5.00000000      -5.00000000      -5.00000000      -5.00000000      -5.00000000      -5.00000000      -5.00000000      -5.00000000      -5.00000000      -5.00000000      -5.00000000      -5.00000000      -5.00000000      -5.00000000      -5.00000000
          -5.00000000      -5.00000000
          -5.00000000      -5.00000000      -5.00000000      -5.00000000      -5.00000000      -5.00000000      -5.00000000      -5.00000000      -5.00000000      -5.00000000      -5.00000000      -5.00000000      -5.00000000      -5.00000000      -5.00000000      -5.00000000      -5.00000000      -5.00000000      -5.00000000      -5.00000000
          -5.00000000      -5.00000000      -5.00000000      -5.00000000      -5.00000000      -5.00000000      -5.00000000      -5.00000000      -5.00000000      -5.00000000      -5.00000000      -5.00000000      -5.00000000      -5.00000000      -5.00000000      -5.00000000      -5.00000000      -5.00000000      -5.00000000      -5.00000000
          -5.00000000      -5.00000000
          -5.00000000      -5.00000000      -5.00000000      -5.00000000      -5.00000000      -5.00000000      -5.00000000      -5.00000000      -5.00000000      -5.00000000      -5.00000000      -5.00000000      -5.00000000      -5.00000000      -5.00000000      -5.00000000      -5.00000000      -5.00000000      -5.00000000      -5.00000000
          -5.00000000      -5.00000000      -5.00000000      -5.00000000      -5.00000000      -5.00000000      -5.00000000      -5.00000000      -5.00000000      -5.00000000      -5.00000000      -5.00000000      -5.00000000      -5.00000000      -5.00000000      -5.00000000      -5.00000000      -5.00000000      -5.00000000      -5.00000000
          -5.00000000      -5.00000000
          -5.00000000      -5.00000000      -5.00000000      -5.00000000      -5.00000000      -5.00000000      -5.00000000      -5.00000000      -5.00000000      -5.00000000      -5.00000000      -5.00000000      -5.00000000      -5.00000000      -5.00000000      -5.00000000      -5.00000000      -5.00000000      -5.00000000      -5.00000000
          -5.00000000      -5.00000000      -5.00000000      -5.00000000      -5.00000000      -5.00000000      -5.00000000      -5.00000000      -5.00000000      -5.00000000      -5.00000000      -5.00000000      -5.00000000      -5.00000000      -5.00000000      -5.00000000      -5.00000000      -5.00000000      -5.00000000      -5.00000000
          -5.00000000      -5.00000000
          -5.00000000      -5.00000000      -5.00000000      -5.00000000      -5.00000000      -5.00000000      -5.00000000      -5.00000000      -5.00000000      -5.00000000      -5.00000000      -5.00000000      -5.00000000      -5.00000000      -5.00000000      -5.00000000      -5.00000000      -5.00000000      -5.00000000      -5.00000000
          -5.00000000      -5.00000000      -5.00000000      -5.00000000      -5.00000000      -5.00000000      -5.00000000      -5.00000000      -5.00000000      -5.00000000      -5.00000000      -5.00000000      -5.00000000      -5.00000000      -5.00000000      -5.00000000      -5.00000000      -5.00000000      -5.00000000      -5.00000000
          -5.00000000      -5.00000000