BEGIN options
  SAVE_FLOWS
END options

BEGIN packages
  DIS6  model.dis  dis
  IC6  model.ic  ic
  NPF6  model.npf  npf
  CHD6  model.chd  chd_0
  RCH6  model.rcha  rcha
  RIV6  model.riv  riv_0
  OC6  model.oc  oc
END packages

