BEGIN options
  auxiliary  angldegx  cdist
END options

BEGIN dimensions
  NEXG  720
END dimensions

BEGIN exchangedata
  1 26 5  1 1 1  1     250.00000000      83.33333333     166.66666667       0.00000000     372.67799625
  1 25 6  1 1 1  1     250.00000000      83.33333333     166.66666667     270.00000000     372.67799625
  1 25 6  1 1 2  1     250.00000000      83.33333333     166.66666667     270.00000000     333.33333333
  1 25 6  1 1 3  1     250.00000000      83.33333333     166.66666667     270.00000000     372.67799625
  1 25 7  1 1 4  1     250.00000000      83.33333333     166.66666667     270.00000000     372.67799625
  1 25 7  1 1 5  1     250.00000000      83.33333333     166.66666667     270.00000000     333.33333333
  1 25 7  1 1 6  1     250.00000000      83.33333333     166.66666667     270.00000000     372.67799625
  1 25 8  1 1 7  1     250.00000000      83.33333333     166.66666667     270.00000000     372.67799625
  1 25 8  1 1 8  1     250.00000000      83.33333333     166.66666667     270.00000000     333.33333333
  1 25 8  1 1 9  1     250.00000000      83.33333333     166.66666667     270.00000000     372.67799625
  1 25 9  1 1 10  1     250.00000000      83.33333333     166.66666667     270.00000000     372.67799625
  1 25 9  1 1 11  1     250.00000000      83.33333333     166.66666667     270.00000000     333.33333333
  1 25 9  1 1 12  1     250.00000000      83.33333333     166.66666667     270.00000000     372.67799625
  1 25 10  1 1 13  1     250.00000000      83.33333333     166.66666667     270.00000000     372.67799625
  1 25 10  1 1 14  1     250.00000000      83.33333333     166.66666667     270.00000000     333.33333333
  1 25 10  1 1 15  1     250.00000000      83.33333333     166.66666667     270.00000000     372.67799625
  1 25 11  1 1 16  1     250.00000000      83.33333333     166.66666667     270.00000000     372.67799625
  1 25 11  1 1 17  1     250.00000000      83.33333333     166.66666667     270.00000000     333.33333333
  1 25 11  1 1 18  1     250.00000000      83.33333333     166.66666667     270.00000000     372.67799625
  1 25 12  1 1 19  1     250.00000000      83.33333333     166.66666667     270.00000000     372.67799625
  1 25 12  1 1 20  1     250.00000000      83.33333333     166.66666667     270.00000000     333.33333333
  1 25 12  1 1 21  1     250.00000000      83.33333333     166.66666667     270.00000000     372.67799625
  1 25 13  1 1 22  1     250.00000000      83.33333333     166.66666667     270.00000000     372.67799625
  1 25 13  1 1 23  1     250.00000000      83.33333333     166.66666667     270.00000000     333.33333333
  1 25 13  1 1 24  1     250.00000000      83.33333333     166.66666667     270.00000000     372.67799625
  1 25 14  1 1 25  1     250.00000000      83.33333333     166.66666667     270.00000000     372.67799625
  1 25 14  1 1 26  1     250.00000000      83.33333333     166.66666667     270.00000000     333.33333333
  1 25 14  1 1 27  1     250.00000000      83.33333333     166.66666667     270.00000000     372.67799625
  1 25 15  1 1 28  1     250.00000000      83.33333333     166.66666667     270.00000000     372.67799625
  1 25 15  1 1 29  1     250.00000000      83.33333333     166.66666667     270.00000000     333.33333333
  1 25 15  1 1 30  1     250.00000000      83.33333333     166.66666667     270.00000000     372.67799625
  1 25 16  1 1 31  1     250.00000000      83.33333333     166.66666667     270.00000000     372.67799625
  1 25 16  1 1 32  1     250.00000000      83.33333333     166.66666667     270.00000000     333.33333333
  1 25 16  1 1 33  1     250.00000000      83.33333333     166.66666667     270.00000000     372.67799625
  1 25 17  1 1 34  1     250.00000000      83.33333333     166.66666667     270.00000000     372.67799625
  1 25 17  1 1 35  1     250.00000000      83.33333333     166.66666667     270.00000000     333.33333333
  1 25 17  1 1 36  1     250.00000000      83.33333333     166.66666667     270.00000000     372.67799625
  1 25 18  1 1 37  1     250.00000000      83.33333333     166.66666667     270.00000000     372.67799625
  1 25 18  1 1 38  1     250.00000000      83.33333333     166.66666667     270.00000000     333.33333333
  1 25 18  1 1 39  1     250.00000000      83.33333333     166.66666667     270.00000000     372.67799625
  1 25 19  1 1 40  1     250.00000000      83.33333333     166.66666667     270.00000000     372.67799625
  1 25 19  1 1 41  1     250.00000000      83.33333333     166.66666667     270.00000000     333.33333333
  1 26 20  1 1 42  1     250.00000000      83.33333333     166.66666667     180.00000000     372.67799625
  1 25 19  1 1 42  1     250.00000000      83.33333333     166.66666667     270.00000000     372.67799625
  1 26 5  1 2 1  1     250.00000000      83.33333333     166.66666667       0.00000000     333.33333333
  1 26 20  1 2 42  1     250.00000000      83.33333333     166.66666667     180.00000000     333.33333333
  1 26 5  1 3 1  1     250.00000000      83.33333333     166.66666667       0.00000000     372.67799625
  1 26 20  1 3 42  1     250.00000000      83.33333333     166.66666667     180.00000000     372.67799625
  1 27 5  1 4 1  1     250.00000000      83.33333333     166.66666667       0.00000000     372.67799625
  1 27 20  1 4 42  1     250.00000000      83.33333333     166.66666667     180.00000000     372.67799625
  1 27 5  1 5 1  1     250.00000000      83.33333333     166.66666667       0.00000000     333.33333333
  1 27 20  1 5 42  1     250.00000000      83.33333333     166.66666667     180.00000000     333.33333333
  1 27 5  1 6 1  1     250.00000000      83.33333333     166.66666667       0.00000000     372.67799625
  1 27 20  1 6 42  1     250.00000000      83.33333333     166.66666667     180.00000000     372.67799625
  1 28 5  1 7 1  1     250.00000000      83.33333333     166.66666667       0.00000000     372.67799625
  1 28 20  1 7 42  1     250.00000000      83.33333333     166.66666667     180.00000000     372.67799625
  1 28 5  1 8 1  1     250.00000000      83.33333333     166.66666667       0.00000000     333.33333333
  1 28 20  1 8 42  1     250.00000000      83.33333333     166.66666667     180.00000000     333.33333333
  1 28 5  1 9 1  1     250.00000000      83.33333333     166.66666667       0.00000000     372.67799625
  1 28 20  1 9 42  1     250.00000000      83.33333333     166.66666667     180.00000000     372.67799625
  1 29 5  1 10 1  1     250.00000000      83.33333333     166.66666667       0.00000000     372.67799625
  1 29 20  1 10 42  1     250.00000000      83.33333333     166.66666667     180.00000000     372.67799625
  1 29 5  1 11 1  1     250.00000000      83.33333333     166.66666667       0.00000000     333.33333333
  1 29 20  1 11 42  1     250.00000000      83.33333333     166.66666667     180.00000000     333.33333333
  1 29 5  1 12 1  1     250.00000000      83.33333333     166.66666667       0.00000000     372.67799625
  1 29 20  1 12 42  1     250.00000000      83.33333333     166.66666667     180.00000000     372.67799625
  1 30 5  1 13 1  1     250.00000000      83.33333333     166.66666667       0.00000000     372.67799625
  1 30 20  1 13 42  1     250.00000000      83.33333333     166.66666667     180.00000000     372.67799625
  1 30 5  1 14 1  1     250.00000000      83.33333333     166.66666667       0.00000000     333.33333333
  1 30 20  1 14 42  1     250.00000000      83.33333333     166.66666667     180.00000000     333.33333333
  1 30 5  1 15 1  1     250.00000000      83.33333333     166.66666667       0.00000000     372.67799625
  1 30 20  1 15 42  1     250.00000000      83.33333333     166.66666667     180.00000000     372.67799625
  1 31 5  1 16 1  1     250.00000000      83.33333333     166.66666667       0.00000000     372.67799625
  1 31 20  1 16 42  1     250.00000000      83.33333333     166.66666667     180.00000000     372.67799625
  1 31 5  1 17 1  1     250.00000000      83.33333333     166.66666667       0.00000000     333.33333333
  1 31 20  1 17 42  1     250.00000000      83.33333333     166.66666667     180.00000000     333.33333333
  1 31 5  1 18 1  1     250.00000000      83.33333333     166.66666667       0.00000000     372.67799625
  1 31 20  1 18 42  1     250.00000000      83.33333333     166.66666667     180.00000000     372.67799625
  1 32 5  1 19 1  1     250.00000000      83.33333333     166.66666667       0.00000000     372.67799625
  1 32 20  1 19 42  1     250.00000000      83.33333333     166.66666667     180.00000000     372.67799625
  1 32 5  1 20 1  1     250.00000000      83.33333333     166.66666667       0.00000000     333.33333333
  1 32 20  1 20 42  1     250.00000000      83.33333333     166.66666667     180.00000000     333.33333333
  1 32 5  1 21 1  1     250.00000000      83.33333333     166.66666667       0.00000000     372.67799625
  1 32 20  1 21 42  1     250.00000000      83.33333333     166.66666667     180.00000000     372.67799625
  1 33 5  1 22 1  1     250.00000000      83.33333333     166.66666667       0.00000000     372.67799625
  1 33 20  1 22 42  1     250.00000000      83.33333333     166.66666667     180.00000000     372.67799625
  1 33 5  1 23 1  1     250.00000000      83.33333333     166.66666667       0.00000000     333.33333333
  1 33 20  1 23 42  1     250.00000000      83.33333333     166.66666667     180.00000000     333.33333333
  1 33 5  1 24 1  1     250.00000000      83.33333333     166.66666667       0.00000000     372.67799625
  1 33 20  1 24 42  1     250.00000000      83.33333333     166.66666667     180.00000000     372.67799625
  1 34 5  1 25 1  1     250.00000000      83.33333333     166.66666667       0.00000000     372.67799625
  1 34 20  1 25 42  1     250.00000000      83.33333333     166.66666667     180.00000000     372.67799625
  1 34 5  1 26 1  1     250.00000000      83.33333333     166.66666667       0.00000000     333.33333333
  1 34 20  1 26 42  1     250.00000000      83.33333333     166.66666667     180.00000000     333.33333333
  1 34 5  1 27 1  1     250.00000000      83.33333333     166.66666667       0.00000000     372.67799625
  1 34 20  1 27 42  1     250.00000000      83.33333333     166.66666667     180.00000000     372.67799625
  1 35 5  1 28 1  1     250.00000000      83.33333333     166.66666667       0.00000000     372.67799625
  1 35 20  1 28 42  1     250.00000000      83.33333333     166.66666667     180.00000000     372.67799625
  1 35 5  1 29 1  1     250.00000000      83.33333333     166.66666667       0.00000000     333.33333333
  1 35 20  1 29 42  1     250.00000000      83.33333333     166.66666667     180.00000000     333.33333333
  1 35 5  1 30 1  1     250.00000000      83.33333333     166.66666667       0.00000000     372.67799625
  1 36 6  1 30 1  1     250.00000000      83.33333333     166.66666667      90.00000000     372.67799625
  1 36 6  1 30 2  1     250.00000000      83.33333333     166.66666667      90.00000000     333.33333333
  1 36 6  1 30 3  1     250.00000000      83.33333333     166.66666667      90.00000000     372.67799625
  1 36 7  1 30 4  1     250.00000000      83.33333333     166.66666667      90.00000000     372.67799625
  1 36 7  1 30 5  1     250.00000000      83.33333333     166.66666667      90.00000000     333.33333333
  1 36 7  1 30 6  1     250.00000000      83.33333333     166.66666667      90.00000000     372.67799625
  1 36 8  1 30 7  1     250.00000000      83.33333333     166.66666667      90.00000000     372.67799625
  1 36 8  1 30 8  1     250.00000000      83.33333333     166.66666667      90.00000000     333.33333333
  1 36 8  1 30 9  1     250.00000000      83.33333333     166.66666667      90.00000000     372.67799625
  1 36 9  1 30 10  1     250.00000000      83.33333333     166.66666667      90.00000000     372.67799625
  1 36 9  1 30 11  1     250.00000000      83.33333333     166.66666667      90.00000000     333.33333333
  1 36 9  1 30 12  1     250.00000000      83.33333333     166.66666667      90.00000000     372.67799625
  1 36 10  1 30 13  1     250.00000000      83.33333333     166.66666667      90.00000000     372.67799625
  1 36 10  1 30 14  1     250.00000000      83.33333333     166.66666667      90.00000000     333.33333333
  1 36 10  1 30 15  1     250.00000000      83.33333333     166.66666667      90.00000000     372.67799625
  1 36 11  1 30 16  1     250.00000000      83.33333333     166.66666667      90.00000000     372.67799625
  1 36 11  1 30 17  1     250.00000000      83.33333333     166.66666667      90.00000000     333.33333333
  1 36 11  1 30 18  1     250.00000000      83.33333333     166.66666667      90.00000000     372.67799625
  1 36 12  1 30 19  1     250.00000000      83.33333333     166.66666667      90.00000000     372.67799625
  1 36 12  1 30 20  1     250.00000000      83.33333333     166.66666667      90.00000000     333.33333333
  1 36 12  1 30 21  1     250.00000000      83.33333333     166.66666667      90.00000000     372.67799625
  1 36 13  1 30 22  1     250.00000000      83.33333333     166.66666667      90.00000000     372.67799625
  1 36 13  1 30 23  1     250.00000000      83.33333333     166.66666667      90.00000000     333.33333333
  1 36 13  1 30 24  1     250.00000000      83.33333333     166.66666667      90.00000000     372.67799625
  1 36 14  1 30 25  1     250.00000000      83.33333333     166.66666667      90.00000000     372.67799625
  1 36 14  1 30 26  1     250.00000000      83.33333333     166.66666667      90.00000000     333.33333333
  1 36 14  1 30 27  1     250.00000000      83.33333333     166.66666667      90.00000000     372.67799625
  1 36 15  1 30 28  1     250.00000000      83.33333333     166.66666667      90.00000000     372.67799625
  1 36 15  1 30 29  1     250.00000000      83.33333333     166.66666667      90.00000000     333.33333333
  1 36 15  1 30 30  1     250.00000000      83.33333333     166.66666667      90.00000000     372.67799625
  1 36 16  1 30 31  1     250.00000000      83.33333333     166.66666667      90.00000000     372.67799625
  1 36 16  1 30 32  1     250.00000000      83.33333333     166.66666667      90.00000000     333.33333333
  1 36 16  1 30 33  1     250.00000000      83.33333333     166.66666667      90.00000000     372.67799625
  1 36 17  1 30 34  1     250.00000000      83.33333333     166.66666667      90.00000000     372.67799625
  1 36 17  1 30 35  1     250.00000000      83.33333333     166.66666667      90.00000000     333.33333333
  1 36 17  1 30 36  1     250.00000000      83.33333333     166.66666667      90.00000000     372.67799625
  1 36 18  1 30 37  1     250.00000000      83.33333333     166.66666667      90.00000000     372.67799625
  1 36 18  1 30 38  1     250.00000000      83.33333333     166.66666667      90.00000000     333.33333333
  1 36 18  1 30 39  1     250.00000000      83.33333333     166.66666667      90.00000000     372.67799625
  1 36 19  1 30 40  1     250.00000000      83.33333333     166.66666667      90.00000000     372.67799625
  1 36 19  1 30 41  1     250.00000000      83.33333333     166.66666667      90.00000000     333.33333333
  1 35 20  1 30 42  1     250.00000000      83.33333333     166.66666667     180.00000000     372.67799625
  1 36 19  1 30 42  1     250.00000000      83.33333333     166.66666667      90.00000000     372.67799625
  2 26 5  2 1 1  1     250.00000000      83.33333333     166.66666667       0.00000000     372.67799625
  2 25 6  2 1 1  1     250.00000000      83.33333333     166.66666667     270.00000000     372.67799625
  2 25 6  2 1 2  1     250.00000000      83.33333333     166.66666667     270.00000000     333.33333333
  2 25 6  2 1 3  1     250.00000000      83.33333333     166.66666667     270.00000000     372.67799625
  2 25 7  2 1 4  1     250.00000000      83.33333333     166.66666667     270.00000000     372.67799625
  2 25 7  2 1 5  1     250.00000000      83.33333333     166.66666667     270.00000000     333.33333333
  2 25 7  2 1 6  1     250.00000000      83.33333333     166.66666667     270.00000000     372.67799625
  2 25 8  2 1 7  1     250.00000000      83.33333333     166.66666667     270.00000000     372.67799625
  2 25 8  2 1 8  1     250.00000000      83.33333333     166.66666667     270.00000000     333.33333333
  2 25 8  2 1 9  1     250.00000000      83.33333333     166.66666667     270.00000000     372.67799625
  2 25 9  2 1 10  1     250.00000000      83.33333333     166.66666667     270.00000000     372.67799625
  2 25 9  2 1 11  1     250.00000000      83.33333333     166.66666667     270.00000000     333.33333333
  2 25 9  2 1 12  1     250.00000000      83.33333333     166.66666667     270.00000000     372.67799625
  2 25 10  2 1 13  1     250.00000000      83.33333333     166.66666667     270.00000000     372.67799625
  2 25 10  2 1 14  1     250.00000000      83.33333333     166.66666667     270.00000000     333.33333333
  2 25 10  2 1 15  1     250.00000000      83.33333333     166.66666667     270.00000000     372.67799625
  2 25 11  2 1 16  1     250.00000000      83.33333333     166.66666667     270.00000000     372.67799625
  2 25 11  2 1 17  1     250.00000000      83.33333333     166.66666667     270.00000000     333.33333333
  2 25 11  2 1 18  1     250.00000000      83.33333333     166.66666667     270.00000000     372.67799625
  2 25 12  2 1 19  1     250.00000000      83.33333333     166.66666667     270.00000000     372.67799625
  2 25 12  2 1 20  1     250.00000000      83.33333333     166.66666667     270.00000000     333.33333333
  2 25 12  2 1 21  1     250.00000000      83.33333333     166.66666667     270.00000000     372.67799625
  2 25 13  2 1 22  1     250.00000000      83.33333333     166.66666667     270.00000000     372.67799625
  2 25 13  2 1 23  1     250.00000000      83.33333333     166.66666667     270.00000000     333.33333333
  2 25 13  2 1 24  1     250.00000000      83.33333333     166.66666667     270.00000000     372.67799625
  2 25 14  2 1 25  1     250.00000000      83.33333333     166.66666667     270.00000000     372.67799625
  2 25 14  2 1 26  1     250.00000000      83.33333333     166.66666667     270.00000000     333.33333333
  2 25 14  2 1 27  1     250.00000000      83.33333333     166.66666667     270.00000000     372.67799625
  2 25 15  2 1 28  1     250.00000000      83.33333333     166.66666667     270.00000000     372.67799625
  2 25 15  2 1 29  1     250.00000000      83.33333333     166.66666667     270.00000000     333.33333333
  2 25 15  2 1 30  1     250.00000000      83.33333333     166.66666667     270.00000000     372.67799625
  2 25 16  2 1 31  1     250.00000000      83.33333333     166.66666667     270.00000000     372.67799625
  2 25 16  2 1 32  1     250.00000000      83.33333333     166.66666667     270.00000000     333.33333333
  2 25 16  2 1 33  1     250.00000000      83.33333333     166.66666667     270.00000000     372.67799625
  2 25 17  2 1 34  1     250.00000000      83.33333333     166.66666667     270.00000000     372.67799625
  2 25 17  2 1 35  1     250.00000000      83.33333333     166.66666667     270.00000000     333.33333333
  2 25 17  2 1 36  1     250.00000000      83.33333333     166.66666667     270.00000000     372.67799625
  2 25 18  2 1 37  1     250.00000000      83.33333333     166.66666667     270.00000000     372.67799625
  2 25 18  2 1 38  1     250.00000000      83.33333333     166.66666667     270.00000000     333.33333333
  2 25 18  2 1 39  1     250.00000000      83.33333333     166.66666667     270.00000000     372.67799625
  2 25 19  2 1 40  1     250.00000000      83.33333333     166.66666667     270.00000000     372.67799625
  2 25 19  2 1 41  1     250.00000000      83.33333333     166.66666667     270.00000000     333.33333333
  2 26 20  2 1 42  1     250.00000000      83.33333333     166.66666667     180.00000000     372.67799625
  2 25 19  2 1 42  1     250.00000000      83.33333333     166.66666667     270.00000000     372.67799625
  2 26 5  2 2 1  1     250.00000000      83.33333333     166.66666667       0.00000000     333.33333333
  2 26 20  2 2 42  1     250.00000000      83.33333333     166.66666667     180.00000000     333.33333333
  2 26 5  2 3 1  1     250.00000000      83.33333333     166.66666667       0.00000000     372.67799625
  2 26 20  2 3 42  1     250.00000000      83.33333333     166.66666667     180.00000000     372.67799625
  2 27 5  2 4 1  1     250.00000000      83.33333333     166.66666667       0.00000000     372.67799625
  2 27 20  2 4 42  1     250.00000000      83.33333333     166.66666667     180.00000000     372.67799625
  2 27 5  2 5 1  1     250.00000000      83.33333333     166.66666667       0.00000000     333.33333333
  2 27 20  2 5 42  1     250.00000000      83.33333333     166.66666667     180.00000000     333.33333333
  2 27 5  2 6 1  1     250.00000000      83.33333333     166.66666667       0.00000000     372.67799625
  2 27 20  2 6 42  1     250.00000000      83.33333333     166.66666667     180.00000000     372.67799625
  2 28 5  2 7 1  1     250.00000000      83.33333333     166.66666667       0.00000000     372.67799625
  2 28 20  2 7 42  1     250.00000000      83.33333333     166.66666667     180.00000000     372.67799625
  2 28 5  2 8 1  1     250.00000000      83.33333333     166.66666667       0.00000000     333.33333333
  2 28 20  2 8 42  1     250.00000000      83.33333333     166.66666667     180.00000000     333.33333333
  2 28 5  2 9 1  1     250.00000000      83.33333333     166.66666667       0.00000000     372.67799625
  2 28 20  2 9 42  1     250.00000000      83.33333333     166.66666667     180.00000000     372.67799625
  2 29 5  2 10 1  1     250.00000000      83.33333333     166.66666667       0.00000000     372.67799625
  2 29 20  2 10 42  1     250.00000000      83.33333333     166.66666667     180.00000000     372.67799625
  2 29 5  2 11 1  1     250.00000000      83.33333333     166.66666667       0.00000000     333.33333333
  2 29 20  2 11 42  1     250.00000000      83.33333333     166.66666667     180.00000000     333.33333333
  2 29 5  2 12 1  1     250.00000000      83.33333333     166.66666667       0.00000000     372.67799625
  2 29 20  2 12 42  1     250.00000000      83.33333333     166.66666667     180.00000000     372.67799625
  2 30 5  2 13 1  1     250.00000000      83.33333333     166.66666667       0.00000000     372.67799625
  2 30 20  2 13 42  1     250.00000000      83.33333333     166.66666667     180.00000000     372.67799625
  2 30 5  2 14 1  1     250.00000000      83.33333333     166.66666667       0.00000000     333.33333333
  2 30 20  2 14 42  1     250.00000000      83.33333333     166.66666667     180.00000000     333.33333333
  2 30 5  2 15 1  1     250.00000000      83.33333333     166.66666667       0.00000000     372.67799625
  2 30 20  2 15 42  1     250.00000000      83.33333333     166.66666667     180.00000000     372.67799625
  2 31 5  2 16 1  1     250.00000000      83.33333333     166.66666667       0.00000000     372.67799625
  2 31 20  2 16 42  1     250.00000000      83.33333333     166.66666667     180.00000000     372.67799625
  2 31 5  2 17 1  1     250.00000000      83.33333333     166.66666667       0.00000000     333.33333333
  2 31 20  2 17 42  1     250.00000000      83.33333333     166.66666667     180.00000000     333.33333333
  2 31 5  2 18 1  1     250.00000000      83.33333333     166.66666667       0.00000000     372.67799625
  2 31 20  2 18 42  1     250.00000000      83.33333333     166.66666667     180.00000000     372.67799625
  2 32 5  2 19 1  1     250.00000000      83.33333333     166.66666667       0.00000000     372.67799625
  2 32 20  2 19 42  1     250.00000000      83.33333333     166.66666667     180.00000000     372.67799625
  2 32 5  2 20 1  1     250.00000000      83.33333333     166.66666667       0.00000000     333.33333333
  2 32 20  2 20 42  1     250.00000000      83.33333333     166.66666667     180.00000000     333.33333333
  2 32 5  2 21 1  1     250.00000000      83.33333333     166.66666667       0.00000000     372.67799625
  2 32 20  2 21 42  1     250.00000000      83.33333333     166.66666667     180.00000000     372.67799625
  2 33 5  2 22 1  1     250.00000000      83.33333333     166.66666667       0.00000000     372.67799625
  2 33 20  2 22 42  1     250.00000000      83.33333333     166.66666667     180.00000000     372.67799625
  2 33 5  2 23 1  1     250.00000000      83.33333333     166.66666667       0.00000000     333.33333333
  2 33 20  2 23 42  1     250.00000000      83.33333333     166.66666667     180.00000000     333.33333333
  2 33 5  2 24 1  1     250.00000000      83.33333333     166.66666667       0.00000000     372.67799625
  2 33 20  2 24 42  1     250.00000000      83.33333333     166.66666667     180.00000000     372.67799625
  2 34 5  2 25 1  1     250.00000000      83.33333333     166.66666667       0.00000000     372.67799625
  2 34 20  2 25 42  1     250.00000000      83.33333333     166.66666667     180.00000000     372.67799625
  2 34 5  2 26 1  1     250.00000000      83.33333333     166.66666667       0.00000000     333.33333333
  2 34 20  2 26 42  1     250.00000000      83.33333333     166.66666667     180.00000000     333.33333333
  2 34 5  2 27 1  1     250.00000000      83.33333333     166.66666667       0.00000000     372.67799625
  2 34 20  2 27 42  1     250.00000000      83.33333333     166.66666667     180.00000000     372.67799625
  2 35 5  2 28 1  1     250.00000000      83.33333333     166.66666667       0.00000000     372.67799625
  2 35 20  2 28 42  1     250.00000000      83.33333333     166.66666667     180.00000000     372.67799625
  2 35 5  2 29 1  1     250.00000000      83.33333333     166.66666667       0.00000000     333.33333333
  2 35 20  2 29 42  1     250.00000000      83.33333333     166.66666667     180.00000000     333.33333333
  2 35 5  2 30 1  1     250.00000000      83.33333333     166.66666667       0.00000000     372.67799625
  2 36 6  2 30 1  1     250.00000000      83.33333333     166.66666667      90.00000000     372.67799625
  2 36 6  2 30 2  1     250.00000000      83.33333333     166.66666667      90.00000000     333.33333333
  2 36 6  2 30 3  1     250.00000000      83.33333333     166.66666667      90.00000000     372.67799625
  2 36 7  2 30 4  1     250.00000000      83.33333333     166.66666667      90.00000000     372.67799625
  2 36 7  2 30 5  1     250.00000000      83.33333333     166.66666667      90.00000000     333.33333333
  2 36 7  2 30 6  1     250.00000000      83.33333333     166.66666667      90.00000000     372.67799625
  2 36 8  2 30 7  1     250.00000000      83.33333333     166.66666667      90.00000000     372.67799625
  2 36 8  2 30 8  1     250.00000000      83.33333333     166.66666667      90.00000000     333.33333333
  2 36 8  2 30 9  1     250.00000000      83.33333333     166.66666667      90.00000000     372.67799625
  2 36 9  2 30 10  1     250.00000000      83.33333333     166.66666667      90.00000000     372.67799625
  2 36 9  2 30 11  1     250.00000000      83.33333333     166.66666667      90.00000000     333.33333333
  2 36 9  2 30 12  1     250.00000000      83.33333333     166.66666667      90.00000000     372.67799625
  2 36 10  2 30 13  1     250.00000000      83.33333333     166.66666667      90.00000000     372.67799625
  2 36 10  2 30 14  1     250.00000000      83.33333333     166.66666667      90.00000000     333.33333333
  2 36 10  2 30 15  1     250.00000000      83.33333333     166.66666667      90.00000000     372.67799625
  2 36 11  2 30 16  1     250.00000000      83.33333333     166.66666667      90.00000000     372.67799625
  2 36 11  2 30 17  1     250.00000000      83.33333333     166.66666667      90.00000000     333.33333333
  2 36 11  2 30 18  1     250.00000000      83.33333333     166.66666667      90.00000000     372.67799625
  2 36 12  2 30 19  1     250.00000000      83.33333333     166.66666667      90.00000000     372.67799625
  2 36 12  2 30 20  1     250.00000000      83.33333333     166.66666667      90.00000000     333.33333333
  2 36 12  2 30 21  1     250.00000000      83.33333333     166.66666667      90.00000000     372.67799625
  2 36 13  2 30 22  1     250.00000000      83.33333333     166.66666667      90.00000000     372.67799625
  2 36 13  2 30 23  1     250.00000000      83.33333333     166.66666667      90.00000000     333.33333333
  2 36 13  2 30 24  1     250.00000000      83.33333333     166.66666667      90.00000000     372.67799625
  2 36 14  2 30 25  1     250.00000000      83.33333333     166.66666667      90.00000000     372.67799625
  2 36 14  2 30 26  1     250.00000000      83.33333333     166.66666667      90.00000000     333.33333333
  2 36 14  2 30 27  1     250.00000000      83.33333333     166.66666667      90.00000000     372.67799625
  2 36 15  2 30 28  1     250.00000000      83.33333333     166.66666667      90.00000000     372.67799625
  2 36 15  2 30 29  1     250.00000000      83.33333333     166.66666667      90.00000000     333.33333333
  2 36 15  2 30 30  1     250.00000000      83.33333333     166.66666667      90.00000000     372.67799625
  2 36 16  2 30 31  1     250.00000000      83.33333333     166.66666667      90.00000000     372.67799625
  2 36 16  2 30 32  1     250.00000000      83.33333333     166.66666667      90.00000000     333.33333333
  2 36 16  2 30 33  1     250.00000000      83.33333333     166.66666667      90.00000000     372.67799625
  2 36 17  2 30 34  1     250.00000000      83.33333333     166.66666667      90.00000000     372.67799625
  2 36 17  2 30 35  1     250.00000000      83.33333333     166.66666667      90.00000000     333.33333333
  2 36 17  2 30 36  1     250.00000000      83.33333333     166.66666667      90.00000000     372.67799625
  2 36 18  2 30 37  1     250.00000000      83.33333333     166.66666667      90.00000000     372.67799625