# PCG for MODFLOW, generated by Flopy.
100 100 1 0
1e-5 0.1 0.99 0 1 0 1.0 
