# EXG input file, prepared by MF5to6 on 3/14/2016 at 12:30:00.

Begin Options
  PRINT_INPUT
  PRINT_FLOWS
  SAVE_FLOWS
  GNC6 FILEIN simulation.exg.gnc
End Options

Begin Dimensions
  NEXG  112
End Dimensions

Begin ExchangeData
  # left side, child layer 1
  1 3 2  1 1 1   2  750.0000000000000  375.0000000000000  600.00000000000
  1 3 2  1 2 1   2  750.0000000000000  375.0000000000000  600.00000000000
  1 4 2  1 3 1   2  750.0000000000000  375.0000000000000  600.00000000000
  1 4 2  1 4 1  2  750.0000000000000  375.0000000000000  600.00000000000
  # right side, child layer 1
  1 3 5  1 1 4   2  750.0000000000000  375.0000000000000  600.00000000000
  1 3 5  1 2 4   2  750.0000000000000  375.0000000000000  600.00000000000
  1 4 5  1 3 4  2  750.0000000000000  375.0000000000000  600.00000000000
  1 4 5  1 4 4  2  750.0000000000000  375.0000000000000  600.00000000000
  # back, child layer 1
  1 2 3  1 1 1    2  600.0000000000000  300.0000000000000  750.00000000000
  1 2 3  1 1 2    2  600.0000000000000  300.0000000000000  750.00000000000
  1 2 4  1 1 3   2  600.0000000000000  300.0000000000000  750.00000000000
  1 2 4  1 1 4   2  600.0000000000000  300.0000000000000  750.00000000000
  # front, child layer 1
  1 5 3  1 4 1   2  600.0000000000000  300.0000000000000  750.00000000000
  1 5 3  1 4 2   2  600.0000000000000  300.0000000000000  750.00000000000
  1 5 4  1 4 3   2  600.0000000000000  300.0000000000000  750.00000000000
  1 5 4  1 4 4   2  600.0000000000000  300.0000000000000  750.00000000000
  # left side, child layer 2
  1 3 2  2 1 1   2  750.0000000000000  375.0000000000000  600.00000000000
  1 3 2  2 2 1   2  750.0000000000000  375.0000000000000  600.00000000000
  1 4 2  2 3 1   2  750.0000000000000  375.0000000000000  600.00000000000
  1 4 2  2 4 1   2  750.0000000000000  375.0000000000000  600.00000000000
  # right side, child layer 2
  1 3 5  2 1 4   2  750.0000000000000  375.0000000000000  600.00000000000
  1 3 5  2 2 4   2  750.0000000000000  375.0000000000000  600.00000000000
  1 4 5  2 3 4   2  750.0000000000000  375.0000000000000  600.00000000000
  1 4 5  2 4 4   2  750.0000000000000  375.0000000000000  600.00000000000
  # back, child layer 2
  1 2 3  2 1 1    2  600.0000000000000  300.0000000000000  750.00000000000
  1 2 3  2 1 2    2  600.0000000000000  300.0000000000000  750.00000000000
  1 2 4  2 1 3   2  600.0000000000000  300.0000000000000  750.00000000000
  1 2 4  2 1 4   2  600.0000000000000  300.0000000000000  750.00000000000
  # front, child layer 2
  1 5 3  2 4 1   2  600.0000000000000  300.0000000000000  750.00000000000
  1 5 3  2 4 2   2  600.0000000000000  300.0000000000000  750.00000000000
  1 5 4  2 4 3   2  600.0000000000000  300.0000000000000  750.00000000000
  1 5 4  2 4 4   2  600.0000000000000  300.0000000000000  750.00000000000
  # left side, child layer 3
  1 3 2  3 1 1   2  750.0000000000000  375.0000000000000  600.00000000000
  1 3 2  3 2 1   2  750.0000000000000  375.0000000000000  600.00000000000
  1 4 2  3 3 1   2  750.0000000000000  375.0000000000000  600.00000000000
  1 4 2  3 4 1   2  750.0000000000000  375.0000000000000  600.00000000000
  # right side, child layer 3
  1 3 5  3 1 4   2  750.0000000000000  375.0000000000000  600.00000000000
  1 3 5  3 2 4   2  750.0000000000000  375.0000000000000  600.00000000000
  1 4 5  3 3 4   2  750.0000000000000  375.0000000000000  600.00000000000
  1 4 5  3 4 4   2  750.0000000000000  375.0000000000000  600.00000000000
  # back, child layer 3
  1 2 3  3 1 1    2  600.0000000000000  300.0000000000000  750.00000000000
  1 2 3  3 1 2    2  600.0000000000000  300.0000000000000  750.00000000000
  1 2 4  3 1 3   2  600.0000000000000  300.0000000000000  750.00000000000
  1 2 4  3 1 4   2  600.0000000000000  300.0000000000000  750.00000000000
  # front, child layer 3
  1 5 3  3 4 1   2  600.0000000000000  300.0000000000000  750.00000000000
  1 5 3  3 4 2   2  600.0000000000000  300.0000000000000  750.00000000000
  1 5 4  3 4 3   2  600.0000000000000  300.0000000000000  750.00000000000
  1 5 4  3 4 4   2  600.0000000000000  300.0000000000000  750.00000000000
  # left side, child layer 4
  2 3 2  4 1 1   2  750.0000000000000  375.0000000000000  600.000000000000
  2 3 2  4 2 1   2  750.0000000000000  375.0000000000000  600.000000000000
  2 4 2  4 3 1   2  750.0000000000000  375.0000000000000  600.000000000000
  2 4 2  4 4 1   2  750.0000000000000  375.0000000000000  600.000000000000
  # right side, child layer 4
  2 3 5  4 1 4   2  750.0000000000000  375.0000000000000  600.000000000000
  2 3 5  4 2 4   2  750.0000000000000  375.0000000000000  600.000000000000
  2 4 5  4 3 4   2  750.0000000000000  375.0000000000000  600.000000000000
  2 4 5  4 4 4   2  750.0000000000000  375.0000000000000  600.000000000000
  # back, child layer 4
  2 2 3  4 1 1   2  600.0000000000000  300.0000000000000  750.000000000000
  2 2 3  4 1 2   2  600.0000000000000  300.0000000000000  750.000000000000
  2 2 4  4 1 3   2  600.0000000000000  300.0000000000000  750.000000000000
  2 2 4  4 1 4   2  600.0000000000000  300.0000000000000  750.000000000000
  # front, child layer 4
  2 5 3  4 4 1   2  600.0000000000000  300.0000000000000  750.000000000000
  2 5 3  4 4 2   2  600.0000000000000  300.0000000000000  750.000000000000
  2 5 4  4 4 3   2  600.0000000000000  300.0000000000000  750.000000000000
  2 5 4  4 4 4   2  600.0000000000000  300.0000000000000  750.000000000000
  # left side, child layer 5
  2 3 2  5 1 1   2  750.0000000000000  375.0000000000000  600.000000000000
  2 3 2  5 2 1   2  750.0000000000000  375.0000000000000  600.000000000000
  2 4 2  5 3 1   2  750.0000000000000  375.0000000000000  600.000000000000
  2 4 2  5 4 1   2  750.0000000000000  375.0000000000000  600.000000000000
  # right side, child layer 5
  2 3 5  5 1 4   2  750.0000000000000  375.0000000000000  600.000000000000
  2 3 5  5 2 4   2  750.0000000000000  375.0000000000000  600.000000000000
  2 4 5  5 3 4   2  750.0000000000000  375.0000000000000  600.000000000000
  2 4 5  5 4 4   2  750.0000000000000  375.0000000000000  600.000000000000
  # back, child layer 5
  2 2 3  5 1 1   2  600.0000000000000  300.0000000000000  750.000000000000
  2 2 3  5 1 2   2  600.0000000000000  300.0000000000000  750.000000000000
  2 2 4  5 1 3   2  600.0000000000000  300.0000000000000  750.000000000000
  2 2 4  5 1 4   2  600.0000000000000  300.0000000000000  750.000000000000
  # front, child layer 5
  2 5 3  5 4 1   2  600.0000000000000  300.0000000000000  750.000000000000
  2 5 3  5 4 2   2  600.0000000000000  300.0000000000000  750.000000000000
  2 5 4  5 4 3   2  600.0000000000000  300.0000000000000  750.000000000000
  2 5 4  5 4 4   2  600.0000000000000  300.0000000000000  750.000000000000
  # left side, child layer 6
  2 3 2  6 1 1   2  750.0000000000000  375.0000000000000  600.000000000000
  2 3 2  6 2 1   2  750.0000000000000  375.0000000000000  600.000000000000
  2 4 2  6 3 1   2  750.0000000000000  375.0000000000000  600.000000000000
  2 4 2  6 4 1   2  750.0000000000000  375.0000000000000  600.000000000000
  # right side, child layer 6
  2 3 5  6 1 4   2  750.0000000000000  375.0000000000000  600.000000000000
  2 3 5  6 2 4   2  750.0000000000000  375.0000000000000  600.000000000000
  2 4 5  6 3 4   2  750.0000000000000  375.0000000000000  600.000000000000
  2 4 5  6 4 4   2  750.0000000000000  375.0000000000000  600.000000000000
  # back, child layer 6
  2 2 3  6 1 1   2  600.0000000000000  300.0000000000000  750.000000000000
  2 2 3  6 1 2   2  600.0000000000000  300.0000000000000  750.000000000000
  2 2 4  6 1 3   2  600.0000000000000  300.0000000000000  750.000000000000
  2 2 4  6 1 4   2  600.0000000000000  300.0000000000000  750.000000000000
  # front, child layer 6
  2 5 3  6 4 1   2  600.0000000000000  300.0000000000000  750.000000000000
  2 5 3  6 4 2   2  600.0000000000000  300.0000000000000  750.000000000000
  2 5 4  6 4 3   2  600.0000000000000  300.0000000000000  750.000000000000
  2 5 4  6 4 4   2  600.0000000000000  300.0000000000000  750.000000000000
  # bottom, child layer 6
  3 3 3  6 1 1   0  15.00000000000000  5.000000000000000  450000.0000000000
  3 3 3  6 1 2   0  15.00000000000000  5.000000000000000  450000.0000000000
  3 3 4  6 1 3   0  15.00000000000000  5.000000000000000  450000.0000000000
  3 3 4  6 1 4   0  15.00000000000000  5.000000000000000  450000.0000000000
  3 3 3  6 2 1   0  15.00000000000000  5.000000000000000  450000.0000000000
  3 3 3  6 2 2   0  15.00000000000000  5.000000000000000  450000.0000000000
  3 3 4  6 2 3   0  15.00000000000000  5.000000000000000  450000.0000000000
  3 3 4  6 2 4   0  15.00000000000000  5.000000000000000  450000.0000000000
  3 4 3  6 3 1   0  15.00000000000000  5.000000000000000  450000.0000000000
  3 4 3  6 3 2   0  15.00000000000000  5.000000000000000  450000.0000000000
  3 4 4  6 3 3   0  15.00000000000000  5.000000000000000  450000.0000000000
  3 4 4  6 3 4   0  15.00000000000000  5.000000000000000  450000.0000000000
  3 4 3  6 4 1   0  15.00000000000000  5.000000000000000  450000.0000000000
  3 4 3  6 4 2   0  15.00000000000000  5.000000000000000  450000.0000000000
  3 4 4  6 4 3   0  15.00000000000000  5.000000000000000  450000.0000000000
  3 4 4  6 4 4   0  15.00000000000000  5.000000000000000  450000.0000000000
End ExchangeData

