
BEGIN OPTIONS
  HEAD FILEOUT m2_3.hds
END OPTIONS

BEGIN PERIOD 1
  PRINT HEAD ALL
  SAVE HEAD ALL
  PRINT BUDGET ALL
END PERIOD
