# NWT for MODFLOW-NWT, generated by Flopy.
   1.0e-06   5.0e+02       500   1.0e-05         2         1         0 SPECIFIED        0.9    0.0001         0       0.1         0
         2         0         3         7         0         0         1    0.0001      1.e-6       100
