# Discretization file for MODFLOW, generated by Flopy.
         2       101       101         3         4         2
  0  0
CONSTANT    1.420000E+02                           #delr                          
CONSTANT    1.420000E+02                           #delc                          
CONSTANT   -5.000000E+01                           #model_top                     
CONSTANT   -1.429000E+02                           #botm Layer 1                  
CONSTANT   -5.149000E+02                           #botm Layer 2                  
      2.314815            50  1.200000  TR 
      2.685185            10  1.000000  TR 
     10.000000            50  1.200000  TR 
