begin options
  PRINT_INPUT
  PRINT_FLOWS
  SAVE_FLOWS
end options

begin dimensions
  MAXBOUND 508
end dimensions

begin period 1
#layer  1
1	1	0.65	
1	2	0.55	
1	3	0.45	
1	4	0.35	
1	5	0.25	
1	6	0.15	
1	7	0.05	
1	8	0.65	
1	9	0.55	
1	10	0.45	
1	11	0.35	
1	12	0.25	
1	13	0.15	
1	14	0.05	
1	15	0.65	
1	16	0.55	
1	17	0.15	
1	18	0.05	
1	19	0.65	
1	20	0.55	
1	21	0.15	
1	22	0.05	
1	23	0.65	
1	24	0.55	
1	25	0.15	
1	26	0.05	
1	27	0.65	
1	28	0.55	
1	29	0.45	
1	30	0.35	
1	31	0.25	
1	32	0.15	
1	33	0.05	
1	34	0.65	
1	35	0.55	
1	36	0.45	
1	37	0.35	
1	38	0.25	
1	39	0.15	
1	40	0.05	
1	41	0.481312967	
1	42	0.492424067	
1	43	0.4924565	
1	44	0.4813454	
1	45	0.2185065	
1	46	0.2073954	
1	47	0.2077016	
1	48	0.2188127	
1	49	0.490518767	
1	50	0.482975267	
1	51	0.250048333	
1	52	0.2352215	
1	53	0.210065533	
1	54	0.217767133	
1	55	0.4495364	
1	56	0.4641827	
1	57	0.482797467	
1	58	0.4903734	
1	59	0.4656672	
1	60	0.464228833	
1	61	0.4495501	
1	62	0.4658587	
1	63	0.2166513	
1	64	0.2092559	
1	65	0.2333663	
1	66	0.236066833	
1	67	0.250587467	
1	68	0.235021267	
1	69	0.4895583	
1	70	0.480077067	
1	71	0.282581367	
1	72	0.265963033	
1	73	0.212722833	
1	74	0.222788367	
1	75	0.416832233	
1	76	0.4330353	
1	77	0.480133233	
1	78	0.489759833	
1	79	0.489394033	
1	80	0.478952333	
1	81	0.489663633	
1	82	0.479057667	
1	83	0.489921467	
1	84	0.4795851	
1	85	0.4796813	
1	86	0.432848467	
1	87	0.4166317	
1	88	0.315815867	
1	89	0.298397233	
1	90	0.349593967	
1	91	0.3320765	
1	92	0.383419867	
1	93	0.366347167	
1	94	0.400051567	
1	95	0.219911767	
1	96	0.210655867	
1	97	0.208445433	
1	98	0.221168267	
1	99	0.209890367	
1	100	0.2183358	
1	101	0.210839633	
1	102	0.22073	
1	103	0.2214955	
1	104	0.2671644	
1	105	0.2832436	
1	106	0.3834347	
1	107	0.400266933	
1	108	0.349946667	
1	109	0.3667147	
1	110	0.316380267	
1	111	0.3329936	
1	112	0.299623867	
1	113	0.452424267	
1	114	0.459314367	
1	115	0.434438667	
1	116	0.4491893	
1	117	0.459929633	
1	118	0.449893167	
1	119	0.459308467	
1	120	0.448570667	
1	121	0.458241333	
1	122	0.4471964	
1	123	0.457571033	
1	124	0.447810167	
1	125	0.459710233	
1	126	0.453035367	
1	127	0.434703867	
1	128	0.400327267	
1	129	0.418295933	
1	130	0.4171889	
1	131	0.430710233	
1	132	0.366918467	
1	133	0.3836988	
1	134	0.332685367	
1	135	0.3498422	
1	136	0.299029133	
1	137	0.3154773	
1	138	0.266304767	
1	139	0.281789233	
1	140	0.248682267	
1	141	0.244150967	
1	142	0.421493833	
1	143	0.429936433	
1	144	0.4191289	
1	145	0.428347833	
1	146	0.417340533	
1	147	0.426518433	
1	148	0.414887367	
1	149	0.425804467	
1	150	0.419373033	
1	151	0.4009375	
1	152	0.383592633	
1	153	0.365634	
1	154	0.3470623	
1	155	0.330258	
1	156	0.3113272	
1	157	0.295727067	
1	158	0.394499333	
1	159	0.380625667	
1	160	0.36013	
1	161	0.344525267	
1	162	0.3246622	
1	163	0.308268433	
1	164	0.397464733	
1	165	0.3862546	
1	166	0.399144233	
1	167	0.388487367	
1	168	0.366916133	
1	169	0.3546652	
1	170	0.336595033	
1	171	0.322196767	
1	172	0.368372633	
1	173	0.358011533	
1	174	0.3379645	
1	175	0.328798933	
1	176	0.401746867	
1	177	0.3902048	
1	178	0.398509133	
1	179	0.3829877	
1	180	0.369958967	
1	181	0.358783667	
1	182	0.3662857	
1	183	0.360245267	
1	184	0.349920533	
1	185	0.337562033	
1	186	0.327103967	
1	187	0.339299067	
1	188	0.327791133	
1	189	0.333716367	
1	190	0.316429967	
1	191	0.277407833	
1	192	0.263459667	
1	193	0.245689767	
1	194	0.239630633	
1	195	0.2880244	
1	196	0.272763933	
1	197	0.252756633	
1	198	0.2438774	
1	199	0.305428667	
1	200	0.287650067	
1	201	0.309710167	
1	202	0.2728192	
1	203	0.25337	
1	204	0.240878467	
1	205	0.2484872	
1	206	0.236784167	
1	207	0.279248367	
1	208	0.2674079	
1	209	0.298360733	
1	210	0.306588967	
1	211	0.2943467	
1	212	0.274278	
1	213	0.3050908	
1	214	0.299312333	
1	215	0.281119767	
1	216	0.261104	
1	217	0.258189767	
1	218	0.239616633	
#layer  2
2	1	0.65	
2	2	0.55	
2	3	0.45	
2	4	0.35	
2	5	0.25	
2	6	0.15	
2	7	0.05	
2	8	0.65	
2	14	0.05	
2	15	0.65	
2	18	0.05	
2	19	0.65	
2	22	0.05	
2	23	0.65	
2	26	0.05	
2	27	0.65	
2	33	0.05	
2	34	0.65	
2	35	0.55	
2	36	0.45	
2	37	0.35	
2	38	0.25	
2	39	0.15	
2	40	0.05	
#layer  3
3	1	0.65	
3	2	0.55	
3	3	0.45	
3	4	0.35	
3	5	0.25	
3	6	0.15	
3	7	0.05	
3	8	0.65	
3	14	0.05	
3	15	0.65	
3	18	0.05	
3	19	0.65	
3	22	0.05	
3	23	0.65	
3	26	0.05	
3	27	0.65	
3	33	0.05	
3	34	0.65	
3	35	0.55	
3	36	0.45	
3	37	0.35	
3	38	0.25	
3	39	0.15	
3	40	0.05	
#layer  4
4	1	0.65	
4	2	0.55	
4	3	0.45	
4	4	0.35	
4	5	0.25	
4	6	0.15	
4	7	0.05	
4	8	0.65	
4	14	0.05	
4	15	0.65	
4	18	0.05	
4	19	0.65	
4	22	0.05	
4	23	0.65	
4	26	0.05	
4	27	0.65	
4	33	0.05	
4	34	0.65	
4	35	0.55	
4	36	0.45	
4	37	0.35	
4	38	0.25	
4	39	0.15	
4	40	0.05	
#layer  5
5	1	0.65	
5	2	0.55	
5	3	0.45	
5	4	0.35	
5	5	0.25	
5	6	0.15	
5	7	0.05	
5	8	0.65	
5	9	0.55	
5	10	0.45	
5	11	0.35	
5	12	0.25	
5	13	0.15	
5	14	0.05	
5	15	0.65	
5	16	0.55	
5	17	0.15	
5	18	0.05	
5	19	0.65	
5	20	0.55	
5	21	0.15	
5	22	0.05	
5	23	0.65	
5	24	0.55	
5	25	0.15	
5	26	0.05	
5	27	0.65	
5	28	0.55	
5	29	0.45	
5	30	0.35	
5	31	0.25	
5	32	0.15	
5	33	0.05	
5	34	0.65	
5	35	0.55	
5	36	0.45	
5	37	0.35	
5	38	0.25	
5	39	0.15	
5	40	0.05	
5	41	0.481312967	
5	42	0.492424067	
5	43	0.4924565	
5	44	0.4813454	
5	45	0.2185065	
5	46	0.2073954	
5	47	0.2077016	
5	48	0.2188127	
5	49	0.490518767	
5	50	0.482975267	
5	51	0.250048333	
5	52	0.2352215	
5	53	0.210065533	
5	54	0.217767133	
5	55	0.4495364	
5	56	0.4641827	
5	57	0.482797467	
5	58	0.4903734	
5	59	0.4656672	
5	60	0.464228833	
5	61	0.4495501	
5	62	0.4658587	
5	63	0.2166513	
5	64	0.2092559	
5	65	0.2333663	
5	66	0.236066833	
5	67	0.250587467	
5	68	0.235021267	
5	69	0.4895583	
5	70	0.480077067	
5	71	0.282581367	
5	72	0.265963033	
5	73	0.212722833	
5	74	0.222788367	
5	75	0.416832233	
5	76	0.4330353	
5	77	0.480133233	
5	78	0.489759833	
5	79	0.489394033	
5	80	0.478952333	
5	81	0.489663633	
5	82	0.479057667	
5	83	0.489921467	
5	84	0.4795851	
5	85	0.4796813	
5	86	0.432848467	
5	87	0.4166317	
5	88	0.315815867	
5	89	0.298397233	
5	90	0.349593967	
5	91	0.3320765	
5	92	0.383419867	
5	93	0.366347167	
5	94	0.400051567	
5	95	0.219911767	
5	96	0.210655867	
5	97	0.208445433	
5	98	0.221168267	
5	99	0.209890367	
5	100	0.2183358	
5	101	0.210839633	
5	102	0.22073	
5	103	0.2214955	
5	104	0.2671644	
5	105	0.2832436	
5	106	0.3834347	
5	107	0.400266933	
5	108	0.349946667	
5	109	0.3667147	
5	110	0.316380267	
5	111	0.3329936	
5	112	0.299623867	
5	113	0.452424267	
5	114	0.459314367	
5	115	0.434438667	
5	116	0.4491893	
5	117	0.459929633	
5	118	0.449893167	
5	119	0.459308467	
5	120	0.448570667	
5	121	0.458241333	
5	122	0.4471964	
5	123	0.457571033	
5	124	0.447810167	
5	125	0.459710233	
5	126	0.453035367	
5	127	0.434703867	
5	128	0.400327267	
5	129	0.418295933	
5	130	0.4171889	
5	131	0.430710233	
5	132	0.366918467	
5	133	0.3836988	
5	134	0.332685367	
5	135	0.3498422	
5	136	0.299029133	
5	137	0.3154773	
5	138	0.266304767	
5	139	0.281789233	
5	140	0.248682267	
5	141	0.244150967	
5	142	0.421493833	
5	143	0.429936433	
5	144	0.4191289	
5	145	0.428347833	
5	146	0.417340533	
5	147	0.426518433	
5	148	0.414887367	
5	149	0.425804467	
5	150	0.419373033	
5	151	0.4009375	
5	152	0.383592633	
5	153	0.365634	
5	154	0.3470623	
5	155	0.330258	
5	156	0.3113272	
5	157	0.295727067	
5	158	0.394499333	
5	159	0.380625667	
5	160	0.36013	
5	161	0.344525267	
5	162	0.3246622	
5	163	0.308268433	
5	164	0.397464733	
5	165	0.3862546	
5	166	0.399144233	
5	167	0.388487367	
5	168	0.366916133	
5	169	0.3546652	
5	170	0.336595033	
5	171	0.322196767	
5	172	0.368372633	
5	173	0.358011533	
5	174	0.3379645	
5	175	0.328798933	
5	176	0.401746867	
5	177	0.3902048	
5	178	0.398509133	
5	179	0.3829877	
5	180	0.369958967	
5	181	0.358783667	
5	182	0.3662857	
5	183	0.360245267	
5	184	0.349920533	
5	185	0.337562033	
5	186	0.327103967	
5	187	0.339299067	
5	188	0.327791133	
5	189	0.333716367	
5	190	0.316429967	
5	191	0.277407833	
5	192	0.263459667	
5	193	0.245689767	
5	194	0.239630633	
5	195	0.2880244	
5	196	0.272763933	
5	197	0.252756633	
5	198	0.2438774	
5	199	0.305428667	
5	200	0.287650067	
5	201	0.309710167	
5	202	0.2728192	
5	203	0.25337	
5	204	0.240878467	
5	205	0.2484872	
5	206	0.236784167	
5	207	0.279248367	
5	208	0.2674079	
5	209	0.298360733	
5	210	0.306588967	
5	211	0.2943467	
5	212	0.274278	
5	213	0.3050908	
5	214	0.299312333	
5	215	0.281119767	
5	216	0.261104	
5	217	0.258189767	
5	218	0.239616633	
end period
