BEGIN options
  auxiliary  CONCENTRATION
  PRINT_INPUT
  PRINT_FLOWS
END options

BEGIN dimensions
  MAXBOUND  52
END dimensions

BEGIN period  1
  1 1 106      26.70000000       0.00000000
  2 1 106      26.70000000       0.00000000
  3 1 106      26.70000000       0.00000000
  4 1 106      26.70000000       0.00000000
  5 1 106      26.70000000       0.00000000
  6 1 106      26.70000000       0.00000000
  7 1 106      26.70000000       0.00000000
  8 1 106      26.70000000       0.00000000
  9 1 106      26.70000000       0.00000000
  10 1 106      26.70000000       0.00000000
  11 1 106      26.70000000       0.00000000
  12 1 106      26.70000000       0.00000000
  13 1 106      26.70000000       0.00000000
  14 1 106      26.70000000       0.00000000
  15 1 106      26.70000000       0.00000000
  16 1 106      26.70000000       0.00000000
  17 1 106      26.70000000       0.00000000
  18 1 106      26.70000000       0.00000000
  19 1 106      26.70000000       0.00000000
  20 1 106      26.70000000       0.00000000
  21 1 106      26.70000000       0.00000000
  22 1 106      26.70000000       0.00000000
  23 1 106      26.70000000       0.00000000
  24 1 106      26.70000000       0.00000000
  25 1 106      26.70000000       0.00000000
  26 1 106      26.70000000       0.00000000
  27 1 106      26.70000000       0.00000000
  28 1 106      26.70000000       0.00000000
  29 1 106      26.70000000       0.00000000
  30 1 106      26.70000000       0.00000000
  31 1 106      26.70000000       0.00000000
  32 1 106      26.70000000       0.00000000
  33 1 106      26.70000000       0.00000000
  34 1 106      26.70000000       0.00000000
  35 1 106      26.70000000       0.00000000
  36 1 106      26.70000000       0.00000000
  37 1 106      26.70000000       0.00000000
  38 1 106      26.70000000       0.00000000
  39 1 106      26.70000000       0.00000000
  40 1 106      26.70000000       0.00000000
  41 1 106      26.70000000       0.00000000
  42 1 106      26.70000000       0.00000000
  43 1 106      26.70000000       0.00000000
  44 1 106      26.70000000       0.00000000
  45 1 106      26.70000000       0.00000000
  46 1 106      26.70000000       0.00000000
  47 1 106      26.70000000       0.00000000
  48 1 106      26.70000000       0.00000000
  49 1 106      26.70000000       0.00000000
  50 1 106      26.70000000       0.00000000
  51 1 106      26.70000000       0.00000000
  52 1 106      26.70000000       0.00000000
END period  1

BEGIN period  2
  1 1 106      26.20000000       0.00000000
  2 1 106      26.20000000       0.00000000
  3 1 106      26.20000000       0.00000000
  4 1 106      26.20000000       0.00000000
  5 1 106      26.20000000       0.00000000
  6 1 106      26.20000000       0.00000000
  7 1 106      26.20000000       0.00000000
  8 1 106      26.20000000       0.00000000
  9 1 106      26.20000000       0.00000000
  10 1 106      26.20000000       0.00000000
  11 1 106      26.20000000       0.00000000
  12 1 106      26.20000000       0.00000000
  13 1 106      26.20000000       0.00000000
  14 1 106      26.20000000       0.00000000
  15 1 106      26.20000000       0.00000000
  16 1 106      26.20000000       0.00000000
  17 1 106      26.20000000       0.00000000
  18 1 106      26.20000000       0.00000000
  19 1 106      26.20000000       0.00000000
  20 1 106      26.20000000       0.00000000
  21 1 106      26.20000000       0.00000000
  22 1 106      26.20000000       0.00000000
  23 1 106      26.20000000       0.00000000
  24 1 106      26.20000000       0.00000000
  25 1 106      26.20000000       0.00000000
  26 1 106      26.20000000       0.00000000
  27 1 106      26.20000000       0.00000000
  28 1 106      26.20000000       0.00000000
  29 1 106      26.20000000       0.00000000
  30 1 106      26.20000000       0.00000000
  31 1 106      26.20000000       0.00000000
  32 1 106      26.20000000       0.00000000
  33 1 106      26.20000000       0.00000000
  34 1 106      26.20000000       0.00000000
  35 1 106      26.20000000       0.00000000
  36 1 106      26.20000000       0.00000000
  37 1 106      26.20000000       0.00000000
  38 1 106      26.20000000       0.00000000
  39 1 106      26.20000000       0.00000000
  40 1 106      26.20000000       0.00000000
  41 1 106      26.20000000       0.00000000
  42 1 106      26.20000000       0.00000000
  43 1 106      26.20000000       0.00000000
  44 1 106      26.20000000       0.00000000
  45 1 106      26.20000000       0.00000000
  46 1 106      26.20000000       0.00000000
  47 1 106      26.20000000       0.00000000
  48 1 106      26.20000000       0.00000000
  49 1 106      26.20000000       0.00000000
  50 1 106      26.20000000       0.00000000
  51 1 106      26.20000000       0.00000000
  52 1 106      26.20000000       0.00000000
END period  2

BEGIN period  3
  1 1 106      26.55000000       0.00000000
  2 1 106      26.55000000       0.00000000
  3 1 106      26.55000000       0.00000000
  4 1 106      26.55000000       0.00000000
  5 1 106      26.55000000       0.00000000
  6 1 106      26.55000000       0.00000000
  7 1 106      26.55000000       0.00000000
  8 1 106      26.55000000       0.00000000
  9 1 106      26.55000000       0.00000000
  10 1 106      26.55000000       0.00000000
  11 1 106      26.55000000       0.00000000
  12 1 106      26.55000000       0.00000000
  13 1 106      26.55000000       0.00000000
  14 1 106      26.55000000       0.00000000
  15 1 106      26.55000000       0.00000000
  16 1 106      26.55000000       0.00000000
  17 1 106      26.55000000       0.00000000
  18 1 106      26.55000000       0.00000000
  19 1 106      26.55000000       0.00000000
  20 1 106      26.55000000       0.00000000
  21 1 106      26.55000000       0.00000000
  22 1 106      26.55000000       0.00000000
  23 1 106      26.55000000       0.00000000
  24 1 106      26.55000000       0.00000000
  25 1 106      26.55000000       0.00000000
  26 1 106      26.55000000       0.00000000
  27 1 106      26.55000000       0.00000000
  28 1 106      26.55000000       0.00000000
  29 1 106      26.55000000       0.00000000
  30 1 106      26.55000000       0.00000000
  31 1 106      26.55000000       0.00000000
  32 1 106      26.55000000       0.00000000
  33 1 106      26.55000000       0.00000000
  34 1 106      26.55000000       0.00000000
  35 1 106      26.55000000       0.00000000
  36 1 106      26.55000000       0.00000000
  37 1 106      26.55000000       0.00000000
  38 1 106      26.55000000       0.00000000
  39 1 106      26.55000000       0.00000000
  40 1 106      26.55000000       0.00000000
  41 1 106      26.55000000       0.00000000
  42 1 106      26.55000000       0.00000000
  43 1 106      26.55000000       0.00000000
  44 1 106      26.55000000       0.00000000
  45 1 106      26.55000000       0.00000000
  46 1 106      26.55000000       0.00000000
  47 1 106      26.55000000       0.00000000
  48 1 106      26.55000000       0.00000000
  49 1 106      26.55000000       0.00000000
  50 1 106      26.55000000       0.00000000
  51 1 106      26.55000000       0.00000000
  52 1 106      26.55000000       0.00000000
END period  3

