begin options
  print_option  all
end options

begin nonlinear
  outer_dvclose  1.00000000e-04
  outer_maximum  100
  under_relaxation  none
end nonlinear

begin linear
  inner_maximum  300
  inner_dvclose  1.00000000e-09
  inner_rclose       0.01000000
  linear_acceleration  bicgstab
  relaxation_factor       0.97000000
  scaling_method  none
  reordering_method  none
end linear
