BEGIN options
  BUDGET  FILEOUT  gwf_goswami.cbc
  HEAD  FILEOUT  gwf_goswami.hds
  HEAD  PRINT_FORMAT  COLUMNS  10  WIDTH  15  DIGITS  6  GENERAL
END options

BEGIN period  1
  SAVE  HEAD  LAST
  SAVE  BUDGET  LAST
  PRINT  HEAD  LAST
  PRINT  BUDGET  LAST
END period  1

