BEGIN options
  auxiliary  CONCENTRATION  DENSITY
  PRINT_INPUT
  PRINT_FLOWS
END options

BEGIN dimensions
  MAXBOUND  50
END dimensions

BEGIN period  1
  3 1 1      25.50000000     145.83333333       0.03710000       1.02597000
  4 1 1      25.50000000     145.83333333       0.03710000       1.02597000
  5 1 1      25.50000000     145.83333333       0.03710000       1.02597000
  6 1 1      25.50000000     145.83333333       0.03710000       1.02597000
  7 1 1      25.50000000     145.83333333       0.03710000       1.02597000
  8 1 1      25.50000000     145.83333333       0.03710000       1.02597000
  9 1 1      25.50000000     145.83333333       0.03710000       1.02597000
  10 1 1      25.50000000     145.83333333       0.03710000       1.02597000
  11 1 1      25.50000000     145.83333333       0.03710000       1.02597000
  12 1 1      25.50000000     145.83333333       0.03710000       1.02597000
  13 1 1      25.50000000     145.83333333       0.03710000       1.02597000
  14 1 1      25.50000000     145.83333333       0.03710000       1.02597000
  15 1 1      25.50000000     145.83333333       0.03710000       1.02597000
  16 1 1      25.50000000     145.83333333       0.03710000       1.02597000
  17 1 1      25.50000000     145.83333333       0.03710000       1.02597000
  18 1 1      25.50000000     145.83333333       0.03710000       1.02597000
  19 1 1      25.50000000     145.83333333       0.03710000       1.02597000
  20 1 1      25.50000000     145.83333333       0.03710000       1.02597000
  21 1 1      25.50000000     145.83333333       0.03710000       1.02597000
  22 1 1      25.50000000     145.83333333       0.03710000       1.02597000
  23 1 1      25.50000000     145.83333333       0.03710000       1.02597000
  24 1 1      25.50000000     145.83333333       0.03710000       1.02597000
  25 1 1      25.50000000     145.83333333       0.03710000       1.02597000
  26 1 1      25.50000000     145.83333333       0.03710000       1.02597000
  27 1 1      25.50000000     145.83333333       0.03710000       1.02597000
  28 1 1      25.50000000     145.83333333       0.03710000       1.02597000
  29 1 1      25.50000000     145.83333333       0.03710000       1.02597000
  30 1 1      25.50000000     145.83333333       0.03710000       1.02597000
  31 1 1      25.50000000     145.83333333       0.03710000       1.02597000
  32 1 1      25.50000000     145.83333333       0.03710000       1.02597000
  33 1 1      25.50000000     145.83333333       0.03710000       1.02597000
  34 1 1      25.50000000     145.83333333       0.03710000       1.02597000
  35 1 1      25.50000000     145.83333333       0.03710000       1.02597000
  36 1 1      25.50000000     145.83333333       0.03710000       1.02597000
  37 1 1      25.50000000     145.83333333       0.03710000       1.02597000
  38 1 1      25.50000000     145.83333333       0.03710000       1.02597000
  39 1 1      25.50000000     145.83333333       0.03710000       1.02597000
  40 1 1      25.50000000     145.83333333       0.03710000       1.02597000
  41 1 1      25.50000000     145.83333333       0.03710000       1.02597000
  42 1 1      25.50000000     145.83333333       0.03710000       1.02597000
  43 1 1      25.50000000     145.83333333       0.03710000       1.02597000
  44 1 1      25.50000000     145.83333333       0.03710000       1.02597000
  45 1 1      25.50000000     145.83333333       0.03710000       1.02597000
  46 1 1      25.50000000     145.83333333       0.03710000       1.02597000
  47 1 1      25.50000000     145.83333333       0.03710000       1.02597000
  48 1 1      25.50000000     145.83333333       0.03710000       1.02597000
  49 1 1      25.50000000     145.83333333       0.03710000       1.02597000
  50 1 1      25.50000000     145.83333333       0.03710000       1.02597000
  51 1 1      25.50000000     145.83333333       0.03710000       1.02597000
  52 1 1      25.50000000     145.83333333       0.03710000       1.02597000
END period  1

