BEGIN options
END options

BEGIN dimensions
  NLAY  52
  NROW  1
  NCOL  106
END dimensions

BEGIN griddata
  delr
    CONSTANT       0.50000000
  delc
    CONSTANT       1.00000000
  top
    CONSTANT      26.00000000
  botm  LAYERED
    CONSTANT      25.50000000
    CONSTANT      25.00000000
    CONSTANT      24.50000000
    CONSTANT      24.00000000
    CONSTANT      23.50000000
    CONSTANT      23.00000000
    CONSTANT      22.50000000
    CONSTANT      22.00000000
    CONSTANT      21.50000000
    CONSTANT      21.00000000
    CONSTANT      20.50000000
    CONSTANT      20.00000000
    CONSTANT      19.50000000
    CONSTANT      19.00000000
    CONSTANT      18.50000000
    CONSTANT      18.00000000
    CONSTANT      17.50000000
    CONSTANT      17.00000000
    CONSTANT      16.50000000
    CONSTANT      16.00000000
    CONSTANT      15.50000000
    CONSTANT      15.00000000
    CONSTANT      14.50000000
    CONSTANT      14.00000000
    CONSTANT      13.50000000
    CONSTANT      13.00000000
    CONSTANT      12.50000000
    CONSTANT      12.00000000
    CONSTANT      11.50000000
    CONSTANT      11.00000000
    CONSTANT      10.50000000
    CONSTANT      10.00000000
    CONSTANT       9.50000000
    CONSTANT       9.00000000
    CONSTANT       8.50000000
    CONSTANT       8.00000000
    CONSTANT       7.50000000
    CONSTANT       7.00000000
    CONSTANT       6.50000000
    CONSTANT       6.00000000
    CONSTANT       5.50000000
    CONSTANT       5.00000000
    CONSTANT       4.50000000
    CONSTANT       4.00000000
    CONSTANT       3.50000000
    CONSTANT       3.00000000
    CONSTANT       2.50000000
    CONSTANT       2.00000000
    CONSTANT       1.50000000
    CONSTANT       1.00000000
    CONSTANT       0.50000000
    CONSTANT       0.00000000
END griddata

