BEGIN options
  BUDGET  FILEOUT  gwt_goswami.cbc
  CONCENTRATION  FILEOUT  gwt_goswami.ucn
  CONCENTRATION  PRINT_FORMAT  COLUMNS  10  WIDTH  15  DIGITS  6  GENERAL
END options

BEGIN period  1
  SAVE  CONCENTRATION  LAST
  PRINT  CONCENTRATION  LAST
  PRINT  BUDGET  LAST
END period  1

BEGIN period  2
  SAVE  CONCENTRATION  STEPS  300  900  3300
  SAVE  CONCENTRATION  LAST
END period  2

BEGIN period  3
  SAVE  CONCENTRATION  STEPS  600  900  1500
  SAVE  CONCENTRATION  LAST
END period  3

