BEGIN Options
END Options

BEGIN Timing
  TDIS6  uzfp2.tdis
END Timing

BEGIN Models
  gwf6  uzfp2.nam  uzfp2
END Models

BEGIN Exchanges
END Exchanges

BEGIN SOLUTIONGROUP  1
  MXITER  1
  ims6  uzfp2.ims  uzfp2
END SOLUTIONGROUP  1

