# DIS8 input file, prepared by MF5to6 on 7/28/2016 at 10:09:45.

BEGIN Options
  LENGTH_UNITS  FEET
END Options

BEGIN Dimensions
  NLAY  1
  NROW  15
  NCOL  10
END Dimensions

BEGIN GRIDDATA
  DELR
    CONSTANT    5000.00000        DELR
  DELC
    CONSTANT    5000.00000        DELC
  TOP LAYERED
    INTERNAL  FACTOR    1.000000      IPRN  3
   1105.000       1105.000       0.000000       0.000000       0.000000       0.000000       0.000000       0.000000       0.000000       0.000000    
   1105.000       1095.000       1105.000       0.000000       0.000000       1100.000       1100.000       1110.000       0.000000       0.000000    
   0.000000       1100.000       1085.000       1080.000       1078.000       1076.000       1073.000       1090.000       0.000000       0.000000    
   1110.000       1100.000       1090.000       1085.000       1076.000       1080.000       1080.000       1070.000       1100.000       0.000000    
   1110.000       1100.000       1085.000       1080.000       1078.000       1074.000       1077.000       1066.000       1075.000       1080.000    
   1105.000       1095.000       1080.000       1077.000       1073.000       1069.000       1070.000       1063.000       1085.000       1095.000    
   1105.000       1090.000       1075.000       1072.000       1070.000       1065.000       1065.000       1069.000       1090.000       0.000000    
   0.000000       1080.000       1070.000       1068.000       1063.000       1060.000       1063.000       1067.000       1090.000       0.000000    
   0.000000       1075.000       1065.000       1062.000       1058.000       1052.000       1055.000       1065.000       1090.000       0.000000    
   0.000000       1070.000       1060.000       1055.000       1046.000       1046.000       1044.000       1060.000       1088.000       1100.000    
   0.000000       1055.000       1050.000       1045.000       1041.000       1042.000       1040.000       1050.000       1075.000       0.000000    
   1027.000       1028.000       1028.000       1032.000       1032.000       1033.000       1032.000       1040.000       1060.000       0.000000    
   997.0000       1004.000       1008.000       1014.000       1020.000       1027.000       1032.000       1038.000       1050.000       0.000000    
   0.000000       1030.000       1040.000       1045.000       1050.000       1050.000       1050.000       1050.000       1044.000       0.000000    
   0.000000       0.000000       1080.000       1080.000       1080.000       1080.000       0.000000       0.000000       0.000000       0.000000    
  BOTM LAYERED
    INTERNAL  FACTOR    1.000000      IPRN  3
   1000.000       1000.000       0.000000       0.000000       0.000000       0.000000       0.000000       0.000000       0.000000       0.000000    
   1000.000       900.0000       900.0000       0.000000       0.000000       950.0000       950.0000       950.0000       0.000000       0.000000    
   0.000000       850.0000       670.0000       680.0000       680.0000       770.0000       770.0000       890.0000       0.000000       0.000000    
   925.0000       850.0000       650.0000       650.0000       650.0000       680.0000       740.0000       850.0000       950.0000       0.000000    
   925.0000       800.0000       650.0000       600.0000       600.0000       600.0000       650.0000       720.0000       850.0000       950.0000    
   925.0000       800.0000       650.0000       600.0000       550.0000       600.0000       650.0000       720.0000       850.0000       970.0000    
   925.0000       800.0000       650.0000       600.0000       550.0000       600.0000       650.0000       720.0000       950.0000       0.000000    
   0.000000       850.0000       700.0000       650.0000       570.0000       600.0000       700.0000       850.0000       950.0000       0.000000    
   0.000000       850.0000       700.0000       650.0000       540.0000       580.0000       700.0000       850.0000       950.0000       0.000000    
   0.000000       850.0000       700.0000       630.0000       530.0000       580.0000       650.0000       800.0000       900.0000       950.0000    
   0.000000       850.0000       700.0000       620.0000       580.0000       620.0000       700.0000       800.0000       900.0000       0.000000    
   900.0000       830.0000       710.0000       640.0000       600.0000       650.0000       700.0000       800.0000       900.0000       0.000000    
   900.0000       810.0000       750.0000       700.0000       650.0000       700.0000       750.0000       800.0000       900.0000       0.000000    
   0.000000       950.0000       850.0000       850.0000       850.0000       850.0000       850.0000       850.0000       850.0000       0.000000    
   0.000000       0.000000       950.0000       950.0000       950.0000       950.0000       0.000000       0.000000       0.000000       0.000000    
  IDOMAIN LAYERED
    INTERNAL  FACTOR  1  IPRN  5    Idomain layer 1
    1    1    0    0    0    0    0    0    0    0
    1    1    1    0    0    1    1    1    0    0
    0    1    1    1    1    1    1    1    0    0
    1    1    1    1    1    1    1    1    1    0
    1    1    1    1    1    1    1    1    1    1
    1    1    1    1    1    1    1    1    1    1
    1    1    1    1    1    1    1    1    1    0
    0    1    1    1    1    1    1    1    1    0
    0    1    1    1    1    1    1    1    1    0
    0    1    1    1    1    1    1    1    1    1
    0    1    1    1    1    1    1    1    1    0
    1    1    1    1    1    1    1    1    1    0
    1    1    1    1    1    1    1    1    1    0
    0    1    1    1    1    1    1    1    1    0
    0    0    1    1    1    1    0    0    0    0
END GRIDDATA
