BEGIN Options
  LENGTH_UNITS  feet
END Options

BEGIN Dimensions
  NLAY  1
  NROW  15
  NCOL  10
END Dimensions

BEGIN GRIDDATA
  delr
    CONSTANT    5000.00000000
  delc
    CONSTANT    5000.00000000
  top
    INTERNAL  FACTOR  1.0  IPRN  3
      1093.04800000    1105.00000000       0.00000000       0.00000000       0.00000000       0.00000000       0.00000000       0.00000000       0.00000000       0.00000000
      1105.00000000    1088.05900000    1105.00000000       0.00000000       0.00000000    1100.00000000    1100.00000000    1110.00000000       0.00000000       0.00000000
         0.00000000    1100.00000000    1082.41900000    1077.40800000    1073.63600000    1070.90900000    1068.31800000    1090.00000000       0.00000000       0.00000000
      1110.00000000    1100.00000000    1090.00000000    1085.00000000    1071.93400000    1080.00000000    1080.00000000    1065.45500000    1100.00000000       0.00000000
      1110.00000000    1100.00000000    1085.00000000    1080.00000000    1078.00000000    1066.50900000    1077.00000000    1062.45500000    1070.90900000    1077.72700000
      1105.00000000    1095.00000000    1080.00000000    1077.00000000    1073.00000000    1061.79200000    1070.00000000    1058.00000000    1085.00000000    1095.00000000
      1105.00000000    1090.00000000    1075.00000000    1072.00000000    1070.00000000    1057.07500000    1053.50000000    1069.00000000    1090.00000000       0.00000000
         0.00000000    1080.00000000    1070.00000000    1068.00000000    1063.00000000    1046.25000000    1049.25000000    1067.00000000    1090.00000000       0.00000000
         0.00000000    1075.00000000    1065.00000000    1062.00000000    1058.00000000    1042.72700000    1055.00000000    1065.00000000    1090.00000000       0.00000000
         0.00000000    1070.00000000    1060.00000000    1055.00000000    1046.00000000    1046.00000000    1038.18200000    1060.00000000    1088.00000000    1100.00000000
         0.00000000    1055.00000000    1050.00000000    1045.00000000    1041.00000000    1042.00000000    1033.63600000    1050.00000000    1075.00000000       0.00000000
      1027.00000000    1028.00000000    1028.00000000    1032.00000000    1032.00000000    1033.00000000    1029.09100000    1040.00000000    1060.00000000       0.00000000
       991.87500000     996.87500000    1003.12500000    1009.37500000    1015.62500000    1021.87500000    1027.41900000    1032.50000000    1050.00000000       0.00000000
         0.00000000    1030.00000000    1040.00000000    1045.00000000    1050.00000000    1050.00000000    1050.00000000    1050.00000000    1037.58100000       0.00000000
         0.00000000       0.00000000    1080.00000000    1080.00000000    1080.00000000    1080.00000000       0.00000000       0.00000000       0.00000000       0.00000000
  botm  LAYERED
    INTERNAL  FACTOR  1.0  IPRN  3
      1000.00000000    1000.00000000       0.00000000       0.00000000       0.00000000       0.00000000       0.00000000       0.00000000       0.00000000       0.00000000
      1000.00000000     900.00000000     900.00000000       0.00000000       0.00000000     950.00000000     950.00000000     950.00000000       0.00000000       0.00000000
         0.00000000     850.00000000     670.00000000     680.00000000     680.00000000     770.00000000     770.00000000     890.00000000       0.00000000       0.00000000
       925.00000000     850.00000000     650.00000000     650.00000000     650.00000000     680.00000000     740.00000000     850.00000000     950.00000000       0.00000000
       925.00000000     800.00000000     650.00000000     600.00000000     600.00000000     600.00000000     650.00000000     720.00000000     850.00000000     950.00000000
       925.00000000     800.00000000     650.00000000     600.00000000     550.00000000     600.00000000     650.00000000     720.00000000     850.00000000     970.00000000
       925.00000000     800.00000000     650.00000000     600.00000000     550.00000000     600.00000000     650.00000000     720.00000000     950.00000000       0.00000000
         0.00000000     850.00000000     700.00000000     650.00000000     570.00000000     600.00000000     700.00000000     850.00000000     950.00000000       0.00000000
         0.00000000     850.00000000     700.00000000     650.00000000     540.00000000     580.00000000     700.00000000     850.00000000     950.00000000       0.00000000
         0.00000000     850.00000000     700.00000000     630.00000000     530.00000000     580.00000000     650.00000000     800.00000000     900.00000000     950.00000000
         0.00000000     850.00000000     700.00000000     620.00000000     580.00000000     620.00000000     700.00000000     800.00000000     900.00000000       0.00000000
       900.00000000     830.00000000     710.00000000     640.00000000     600.00000000     650.00000000     700.00000000     800.00000000     900.00000000       0.00000000
       900.00000000     810.00000000     750.00000000     700.00000000     650.00000000     700.00000000     750.00000000     800.00000000     900.00000000       0.00000000
         0.00000000     950.00000000     850.00000000     850.00000000     850.00000000     850.00000000     850.00000000     850.00000000     850.00000000       0.00000000
         0.00000000       0.00000000     950.00000000     950.00000000     950.00000000     950.00000000       0.00000000       0.00000000       0.00000000       0.00000000
  idomain  LAYERED
    INTERNAL  FACTOR  1  IPRN  5
    1  1  0  0  0  0  0  0  0  0
    1  1  1  0  0  1  1  1  0  0
    0  1  1  1  1  1  1  1  0  0
    1  1  1  1  1  1  1  1  1  0
    1  1  1  1  1  1  1  1  1  1
    1  1  1  1  1  1  1  1  1  1
    1  1  1  1  1  1  1  1  1  0
    0  1  1  1  1  1  1  1  1  0
    0  1  1  1  1  1  1  1  1  0
    0  1  1  1  1  1  1  1  1  1
    0  1  1  1  1  1  1  1  1  0
    1  1  1  1  1  1  1  1  1  0
    1  1  1  1  1  1  1  1  1  0
    0  1  1  1  1  1  1  1  1  0
    0  0  1  1  1  1  0  0  0  0
END GRIDDATA

