BEGIN options
  auxiliary  drndepth
  AUXDEPTHNAME  drndepth
  MOVER
END options

BEGIN dimensions
  MAXBOUND  116
END dimensions

BEGIN period  1
  1 1 1    1092.54800000      25.00000000       1.00000000
  1 1 2    1104.50000000      25.00000000       1.00000000
  1 2 1    1104.50000000      25.00000000       1.00000000
  1 2 2    1087.55900000      25.00000000       1.00000000
  1 2 3    1104.50000000      25.00000000       1.00000000
  1 2 6    1099.50000000      25.00000000       1.00000000
  1 2 7    1099.50000000      25.00000000       1.00000000
  1 2 8    1109.50000000      25.00000000       1.00000000
  1 3 2    1099.50000000      25.00000000       1.00000000
  1 3 3    1081.91900000      25.00000000       1.00000000
  1 3 4    1076.90800000      25.00000000       1.00000000
  1 3 5    1073.13600000      25.00000000       1.00000000
  1 3 6    1070.40900000      25.00000000       1.00000000
  1 3 7    1067.81800000      25.00000000       1.00000000
  1 3 8    1089.50000000      25.00000000       1.00000000
  1 4 1    1109.50000000      25.00000000       1.00000000
  1 4 2    1099.50000000      25.00000000       1.00000000
  1 4 3    1089.50000000      25.00000000       1.00000000
  1 4 4    1084.50000000      25.00000000       1.00000000
  1 4 5    1071.43400000      25.00000000       1.00000000
  1 4 6    1079.50000000      25.00000000       1.00000000
  1 4 7    1079.50000000      25.00000000       1.00000000
  1 4 8    1064.95500000      25.00000000       1.00000000
  1 4 9    1099.50000000      25.00000000       1.00000000
  1 5 1    1109.50000000      25.00000000       1.00000000
  1 5 2    1099.50000000      25.00000000       1.00000000
  1 5 3    1084.50000000      25.00000000       1.00000000
  1 5 4    1079.50000000      25.00000000       1.00000000
  1 5 5    1077.50000000      25.00000000       1.00000000
  1 5 6    1066.00900000      25.00000000       1.00000000
  1 5 7    1076.50000000      25.00000000       1.00000000
  1 5 8    1061.95500000      25.00000000       1.00000000
  1 5 9    1070.40900000      25.00000000       1.00000000
  1 5 10    1077.22700000      25.00000000       1.00000000
  1 6 1    1104.50000000      25.00000000       1.00000000
  1 6 2    1094.50000000      25.00000000       1.00000000
  1 6 3    1079.50000000      25.00000000       1.00000000
  1 6 4    1076.50000000      25.00000000       1.00000000
  1 6 5    1072.50000000      25.00000000       1.00000000
  1 6 6    1061.29200000      25.00000000       1.00000000
  1 6 7    1069.50000000      25.00000000       1.00000000
  1 6 8    1057.50000000      25.00000000       1.00000000
  1 6 9    1084.50000000      25.00000000       1.00000000
  1 6 10    1094.50000000      25.00000000       1.00000000
  1 7 1    1104.50000000      25.00000000       1.00000000
  1 7 2    1089.50000000      25.00000000       1.00000000
  1 7 3    1074.50000000      25.00000000       1.00000000
  1 7 4    1071.50000000      25.00000000       1.00000000
  1 7 5    1069.50000000      25.00000000       1.00000000
  1 7 6    1056.57500000      25.00000000       1.00000000
  1 7 7    1053.00000000      25.00000000       1.00000000
  1 7 8    1068.50000000      25.00000000       1.00000000
  1 7 9    1089.50000000      25.00000000       1.00000000
  1 8 2    1079.50000000      25.00000000       1.00000000
  1 8 3    1069.50000000      25.00000000       1.00000000
  1 8 4    1067.50000000      25.00000000       1.00000000
  1 8 5    1062.50000000      25.00000000       1.00000000
  1 8 6    1045.75000000      25.00000000       1.00000000
  1 8 7    1048.75000000      25.00000000       1.00000000
  1 8 8    1066.50000000      25.00000000       1.00000000
  1 8 9    1089.50000000      25.00000000       1.00000000
  1 9 2    1074.50000000      25.00000000       1.00000000
  1 9 3    1064.50000000      25.00000000       1.00000000
  1 9 4    1061.50000000      25.00000000       1.00000000
  1 9 5    1057.50000000      25.00000000       1.00000000
  1 9 6    1042.22700000      25.00000000       1.00000000
  1 9 7    1054.50000000      25.00000000       1.00000000
  1 9 8    1064.50000000      25.00000000       1.00000000
  1 9 9    1089.50000000      25.00000000       1.00000000
  1 10 2    1069.50000000      25.00000000       1.00000000
  1 10 3    1059.50000000      25.00000000       1.00000000
  1 10 4    1054.50000000      25.00000000       1.00000000
  1 10 5    1045.50000000      25.00000000       1.00000000
  1 10 6    1045.50000000      25.00000000       1.00000000
  1 10 7    1037.68200000      25.00000000       1.00000000
  1 10 8    1059.50000000      25.00000000       1.00000000
  1 10 9    1087.50000000      25.00000000       1.00000000
  1 10 10    1099.50000000      25.00000000       1.00000000
  1 11 2    1054.50000000      25.00000000       1.00000000
  1 11 3    1049.50000000      25.00000000       1.00000000
  1 11 4    1044.50000000      25.00000000       1.00000000
  1 11 5    1040.50000000      25.00000000       1.00000000
  1 11 6    1041.50000000      25.00000000       1.00000000
  1 11 7    1033.13600000      25.00000000       1.00000000
  1 11 8    1049.50000000      25.00000000       1.00000000
  1 11 9    1074.50000000      25.00000000       1.00000000
  1 12 1    1026.50000000      25.00000000       1.00000000
  1 12 2    1027.50000000      25.00000000       1.00000000
  1 12 3    1027.50000000      25.00000000       1.00000000
  1 12 4    1031.50000000      25.00000000       1.00000000
  1 12 5    1031.50000000      25.00000000       1.00000000
  1 12 6    1032.50000000      25.00000000       1.00000000
  1 12 7    1028.59100000      25.00000000       1.00000000
  1 12 8    1039.50000000      25.00000000       1.00000000
  1 12 9    1059.50000000      25.00000000       1.00000000
  1 13 1     991.37500000      25.00000000       1.00000000
  1 13 2     996.37500000      25.00000000       1.00000000
  1 13 3    1002.62500000      25.00000000       1.00000000
  1 13 4    1008.87500000      25.00000000       1.00000000
  1 13 5    1015.12500000      25.00000000       1.00000000
  1 13 6    1021.37500000      25.00000000       1.00000000
  1 13 7    1026.91900000      25.00000000       1.00000000
  1 13 8    1032.00000000      25.00000000       1.00000000
  1 13 9    1049.50000000      25.00000000       1.00000000
  1 14 2    1029.50000000      25.00000000       1.00000000
  1 14 3    1039.50000000      25.00000000       1.00000000
  1 14 4    1044.50000000      25.00000000       1.00000000
  1 14 5    1049.50000000      25.00000000       1.00000000
  1 14 6    1049.50000000      25.00000000       1.00000000
  1 14 7    1049.50000000      25.00000000       1.00000000
  1 14 8    1049.50000000      25.00000000       1.00000000
  1 14 9    1037.08100000      25.00000000       1.00000000
  1 15 3    1079.50000000      25.00000000       1.00000000
  1 15 4    1079.50000000      25.00000000       1.00000000
  1 15 5    1079.50000000      25.00000000       1.00000000
  1 15 6    1079.50000000      25.00000000       1.00000000
END period  1

