# sms8 input file, prepared by mf5to6 on 7/28/2016 at 10:09:45.

begin options
  print_option  summary
  complexity  simple
end options

begin nonlinear
	outer_dvclose 1.e-5
	outer_maximum 100 
	under_relaxation none dbd
	under_relaxation_theta 0.85
	under_relaxation_kappa 0.100000e-03
	under_relaxation_gamma 0.
	under_relaxation_momentum 0.1
	backtracking_number 0
	backtracking_tolerance 1.1
	backtracking_reduction_factor 0.7
	backtracking_residual_limit 1.
end nonlinear


begin linear
	inner_dvclose 1.0e-5
	inner_rclose 0.1
	#l2norm_rclose
	inner_maximum 100
	linear_acceleration cg
	scaling_method none
	reordering_method none
	relaxation_factor .99
end linear
