BEGIN Options
END Options

BEGIN GRIDDATA
  iconvert  LAYERED
    CONSTANT  1
  ss  LAYERED
    CONSTANT  1.00000000E-06
  sy  LAYERED
    INTERNAL  FACTOR  1.0  IPRN  12
         0.20000000       0.20000000       0.00000000       0.00000000       0.00000000       0.00000000       0.00000000       0.00000000       0.00000000       0.00000000
         0.10000000       0.20000000       0.20000000       0.00000000       0.00000000       0.10000000       0.10000000       0.10000000       0.00000000       0.00000000
         0.00000000       0.10000000       0.20000000       0.20000000       0.10000000       0.10000000       0.10000000       0.10000000       0.00000000       0.00000000
         0.10000000       0.10000000       0.10000000       0.20000000       0.20000000       0.20000000       0.10000000       0.10000000       0.10000000       0.00000000
         0.10000000       0.10000000       0.10000000       0.20000000       0.20000000       0.20000000       0.20000000       0.20000000       0.20000000       0.20000000
         0.10000000       0.10000000       0.10000000       0.20000000       0.20000000       0.20000000       0.20000000       0.20000000       0.10000000       0.10000000
         0.10000000       0.10000000       0.10000000       0.20000000       0.20000000       0.20000000       0.20000000       0.20000000       0.10000000       0.00000000
         0.00000000       0.10000000       0.10000000       0.20000000       0.20000000       0.20000000       0.20000000       0.10000000       0.10000000       0.00000000
         0.00000000       0.10000000       0.10000000       0.20000000       0.20000000       0.20000000       0.20000000       0.10000000       0.10000000       0.00000000
         0.00000000       0.10000000       0.10000000       0.20000000       0.20000000       0.20000000       0.20000000       0.10000000       0.10000000       0.10000000
         0.00000000       0.10000000       0.10000000       0.20000000       0.20000000       0.20000000       0.20000000       0.10000000       0.10000000       0.00000000
         0.10000000       0.10000000       0.20000000       0.20000000       0.20000000       0.20000000       0.20000000       0.10000000       0.10000000       0.00000000
         0.20000000       0.20000000       0.20000000       0.20000000       0.20000000       0.20000000       0.20000000       0.20000000       0.20000000       0.00000000
         0.00000000       0.10000000       0.10000000       0.10000000       0.10000000       0.10000000       0.10000000       0.10000000       0.20000000       0.00000000
         0.00000000       0.00000000       0.10000000       0.10000000       0.10000000       0.10000000       0.00000000       0.00000000       0.00000000       0.00000000
END GRIDDATA

BEGIN Period  1
  STEADY-STATE
END Period  1

BEGIN Period  2
  TRANSIENT
END Period  2

