BEGIN Options
  PRINT_OPTION  SUMMARY
  COMPLEXITY  SIMPLE
END Options

begin nonlinear
	outer_dvclose 1.e-6
	outer_maximum 100
	under_relaxation none dbd
	under_relaxation_theta 0.85
	under_relaxation_kappa 0.100000E-03
	under_relaxation_gamma 0.
	under_relaxation_momentum 0.1
	BACKTRACKING_NUMBER 0
	BACKTRACKING_TOLERANCE 1.1
	BACKTRACKING_REDUCTION_FACTOR 0.7
	BACKTRACKING_RESIDUAL_LIMIT 1.
end nonlinear


begin linear
	inner_dvclose 1.0e-9
	inner_rclose 1e-6 strict
	inner_maximum 100
	linear_acceleration bicgstab
	scaling_method none
	REORDERING_METHOD none
	relaxation_factor .99
end linear
