BEGIN options
END options

BEGIN dimensions
  MAXMVR  232
  MAXPACKAGES  3
END dimensions

BEGIN packages
  uzf_1
  sfr_1
  drn_1
END packages

BEGIN period  1
  uzf_1  1  sfr_1  1  factor       1.00000000
  uzf_1  2  sfr_1  2  factor       1.00000000
  uzf_1  3  sfr_1  1  factor       1.00000000
  uzf_1  4  sfr_1  2  factor       1.00000000
  uzf_1  5  sfr_1  3  factor       1.00000000
  uzf_1  6  sfr_1  11  factor       1.00000000
  uzf_1  7  sfr_1  12  factor       1.00000000
  uzf_1  8  sfr_1  13  factor       1.00000000
  uzf_1  9  sfr_1  2  factor       1.00000000
  uzf_1  10  sfr_1  3  factor       1.00000000
  uzf_1  11  sfr_1  4  factor       1.00000000
  uzf_1  12  sfr_1  10  factor       1.00000000
  uzf_1  13  sfr_1  11  factor       1.00000000
  uzf_1  14  sfr_1  12  factor       1.00000000
  uzf_1  15  sfr_1  13  factor       1.00000000
  uzf_1  16  sfr_1  35  factor       1.00000000
  uzf_1  17  sfr_1  35  factor       1.00000000
  uzf_1  18  sfr_1  3  factor       1.00000000
  uzf_1  19  sfr_1  5  factor       1.00000000
  uzf_1  20  sfr_1  5  factor       1.00000000
  uzf_1  21  sfr_1  5  factor       1.00000000
  uzf_1  22  sfr_1  2  factor       1.00000000
  uzf_1  23  sfr_1  13  factor       1.00000000
  uzf_1  24  sfr_1  13  factor       1.00000000
  uzf_1  25  sfr_1  35  factor       1.00000000
  uzf_1  26  sfr_1  35  factor       1.00000000
  uzf_1  27  sfr_1  34  factor       1.00000000
  uzf_1  28  sfr_1  34  factor       1.00000000
  uzf_1  29  sfr_1  6  factor       1.00000000
  uzf_1  30  sfr_1  6  factor       1.00000000
  uzf_1  31  sfr_1  2  factor       1.00000000
  uzf_1  32  sfr_1  14  factor       1.00000000
  uzf_1  33  sfr_1  17  factor       1.00000000
  uzf_1  34  sfr_1  16  factor       1.00000000
  uzf_1  35  sfr_1  35  factor       1.00000000
  uzf_1  36  sfr_1  35  factor       1.00000000
  uzf_1  37  sfr_1  34  factor       1.00000000
  uzf_1  38  sfr_1  34  factor       1.00000000
  uzf_1  39  sfr_1  33  factor       1.00000000
  uzf_1  40  sfr_1  7  factor       1.00000000
  uzf_1  41  sfr_1  2  factor       1.00000000
  uzf_1  42  sfr_1  18  factor       1.00000000
  uzf_1  43  sfr_1  17  factor       1.00000000
  uzf_1  44  sfr_1  16  factor       1.00000000
  uzf_1  45  sfr_1  35  factor       1.00000000
  uzf_1  46  sfr_1  35  factor       1.00000000
  uzf_1  47  sfr_1  34  factor       1.00000000
  uzf_1  48  sfr_1  34  factor       1.00000000
  uzf_1  49  sfr_1  33  factor       1.00000000
  uzf_1  50  sfr_1  32  factor       1.00000000
  uzf_1  51  sfr_1  20  factor       1.00000000
  uzf_1  52  sfr_1  20  factor       1.00000000
  uzf_1  53  sfr_1  20  factor       1.00000000
  uzf_1  54  sfr_1  35  factor       1.00000000
  uzf_1  55  sfr_1  34  factor       1.00000000
  uzf_1  56  sfr_1  33  factor       1.00000000
  uzf_1  57  sfr_1  33  factor       1.00000000
  uzf_1  58  sfr_1  9  factor       1.00000000
  uzf_1  59  sfr_1  21  factor       1.00000000
  uzf_1  60  sfr_1  21  factor       1.00000000
  uzf_1  61  sfr_1  21  factor       1.00000000
  uzf_1  62  sfr_1  35  factor       1.00000000
  uzf_1  63  sfr_1  34  factor       1.00000000
  uzf_1  64  sfr_1  33  factor       1.00000000
  uzf_1  65  sfr_1  32  factor       1.00000000
  uzf_1  66  sfr_1  23  factor       1.00000000
  uzf_1  67  sfr_1  23  factor       1.00000000
  uzf_1  68  sfr_1  23  factor       1.00000000
  uzf_1  69  sfr_1  23  factor       1.00000000
  uzf_1  70  sfr_1  35  factor       1.00000000
  uzf_1  71  sfr_1  34  factor       1.00000000
  uzf_1  72  sfr_1  33  factor       1.00000000
  uzf_1  73  sfr_1  32  factor       1.00000000
  uzf_1  74  sfr_1  24  factor       1.00000000
  uzf_1  75  sfr_1  24  factor       1.00000000
  uzf_1  76  sfr_1  24  factor       1.00000000
  uzf_1  77  sfr_1  24  factor       1.00000000
  uzf_1  78  sfr_1  24  factor       1.00000000
  uzf_1  79  sfr_1  35  factor       1.00000000
  uzf_1  80  sfr_1  34  factor       1.00000000
  uzf_1  81  sfr_1  33  factor       1.00000000
  uzf_1  82  sfr_1  32  factor       1.00000000
  uzf_1  83  sfr_1  31  factor       1.00000000
  uzf_1  84  sfr_1  25  factor       1.00000000
  uzf_1  85  sfr_1  6  factor       1.00000000
  uzf_1  86  sfr_1  7  factor       1.00000000
  uzf_1  87  sfr_1  36  factor       1.00000000
  uzf_1  88  sfr_1  35  factor       1.00000000
  uzf_1  89  sfr_1  34  factor       1.00000000
  uzf_1  90  sfr_1  33  factor       1.00000000
  uzf_1  91  sfr_1  32  factor       1.00000000
  uzf_1  92  sfr_1  31  factor       1.00000000
  uzf_1  93  sfr_1  26  factor       1.00000000
  uzf_1  94  sfr_1  7  factor       1.00000000
  uzf_1  95  sfr_1  7  factor       1.00000000
  uzf_1  96  sfr_1  36  factor       1.00000000
  uzf_1  97  sfr_1  35  factor       1.00000000
  uzf_1  98  sfr_1  34  factor       1.00000000
  uzf_1  99  sfr_1  33  factor       1.00000000
  uzf_1  100  sfr_1  32  factor       1.00000000
  uzf_1  101  sfr_1  31  factor       1.00000000
  uzf_1  102  sfr_1  30  factor       1.00000000
  uzf_1  103  sfr_1  29  factor       1.00000000
  uzf_1  104  sfr_1  7  factor       1.00000000
  uzf_1  105  sfr_1  35  factor       1.00000000
  uzf_1  106  sfr_1  34  factor       1.00000000
  uzf_1  107  sfr_1  33  factor       1.00000000
  uzf_1  108  sfr_1  32  factor       1.00000000
  uzf_1  109  sfr_1  31  factor       1.00000000
  uzf_1  110  sfr_1  7  factor       1.00000000
  uzf_1  111  sfr_1  7  factor       1.00000000
  uzf_1  112  sfr_1  28  factor       1.00000000
  uzf_1  113  sfr_1  35  factor       1.00000000
  uzf_1  114  sfr_1  34  factor       1.00000000
  uzf_1  115  sfr_1  33  factor       1.00000000
  uzf_1  116  sfr_1  32  factor       1.00000000
  drn_1  1  sfr_1  1  factor       1.00000000
  drn_1  2  sfr_1  2  factor       1.00000000
  drn_1  3  sfr_1  1  factor       1.00000000
  drn_1  4  sfr_1  2  factor       1.00000000
  drn_1  5  sfr_1  3  factor       1.00000000
  drn_1  6  sfr_1  11  factor       1.00000000
  drn_1  7  sfr_1  12  factor       1.00000000
  drn_1  8  sfr_1  13  factor       1.00000000
  drn_1  9  sfr_1  2  factor       1.00000000
  drn_1  10  sfr_1  3  factor       1.00000000
  drn_1  11  sfr_1  4  factor       1.00000000
  drn_1  12  sfr_1  10  factor       1.00000000
  drn_1  13  sfr_1  11  factor       1.00000000
  drn_1  14  sfr_1  12  factor       1.00000000
  drn_1  15  sfr_1  13  factor       1.00000000
  drn_1  16  sfr_1  35  factor       1.00000000
  drn_1  17  sfr_1  35  factor       1.00000000
  drn_1  18  sfr_1  3  factor       1.00000000
  drn_1  19  sfr_1  5  factor       1.00000000
  drn_1  20  sfr_1  5  factor       1.00000000
  drn_1  21  sfr_1  5  factor       1.00000000
  drn_1  22  sfr_1  2  factor       1.00000000
  drn_1  23  sfr_1  13  factor       1.00000000
  drn_1  24  sfr_1  13  factor       1.00000000
  drn_1  25  sfr_1  35  factor       1.00000000
  drn_1  26  sfr_1  35  factor       1.00000000
  drn_1  27  sfr_1  34  factor       1.00000000
  drn_1  28  sfr_1  34  factor       1.00000000
  drn_1  29  sfr_1  6  factor       1.00000000
  drn_1  30  sfr_1  6  factor       1.00000000
  drn_1  31  sfr_1  2  factor       1.00000000
  drn_1  32  sfr_1  14  factor       1.00000000
  drn_1  33  sfr_1  17  factor       1.00000000
  drn_1  34  sfr_1  16  factor       1.00000000
  drn_1  35  sfr_1  35  factor       1.00000000
  drn_1  36  sfr_1  35  factor       1.00000000
  drn_1  37  sfr_1  34  factor       1.00000000
  drn_1  38  sfr_1  34  factor       1.00000000
  drn_1  39  sfr_1  33  factor       1.00000000
  drn_1  40  sfr_1  7  factor       1.00000000
  drn_1  41  sfr_1  2  factor       1.00000000
  drn_1  42  sfr_1  18  factor       1.00000000
  drn_1  43  sfr_1  17  factor       1.00000000
  drn_1  44  sfr_1  16  factor       1.00000000
  drn_1  45  sfr_1  35  factor       1.00000000
  drn_1  46  sfr_1  35  factor       1.00000000
  drn_1  47  sfr_1  34  factor       1.00000000
  drn_1  48  sfr_1  34  factor       1.00000000
  drn_1  49  sfr_1  33  factor       1.00000000
  drn_1  50  sfr_1  32  factor       1.00000000
  drn_1  51  sfr_1  20  factor       1.00000000
  drn_1  52  sfr_1  20  factor       1.00000000
  drn_1  53  sfr_1  20  factor       1.00000000
  drn_1  54  sfr_1  35  factor       1.00000000
  drn_1  55  sfr_1  34  factor       1.00000000
  drn_1  56  sfr_1  33  factor       1.00000000
  drn_1  57  sfr_1  33  factor       1.00000000
  drn_1  58  sfr_1  9  factor       1.00000000
  drn_1  59  sfr_1  21  factor       1.00000000
  drn_1  60  sfr_1  21  factor       1.00000000
  drn_1  61  sfr_1  21  factor       1.00000000
  drn_1  62  sfr_1  35  factor       1.00000000
  drn_1  63  sfr_1  34  factor       1.00000000
  drn_1  64  sfr_1  33  factor       1.00000000
  drn_1  65  sfr_1  32  factor       1.00000000
  drn_1  66  sfr_1  23  factor       1.00000000
  drn_1  67  sfr_1  23  factor       1.00000000
  drn_1  68  sfr_1  23  factor       1.00000000
  drn_1  69  sfr_1  23  factor       1.00000000
  drn_1  70  sfr_1  35  factor       1.00000000
  drn_1  71  sfr_1  34  factor       1.00000000
  drn_1  72  sfr_1  33  factor       1.00000000
  drn_1  73  sfr_1  32  factor       1.00000000
  drn_1  74  sfr_1  24  factor       1.00000000
  drn_1  75  sfr_1  24  factor       1.00000000
  drn_1  76  sfr_1  24  factor       1.00000000
  drn_1  77  sfr_1  24  factor       1.00000000
  drn_1  78  sfr_1  24  factor       1.00000000
  drn_1  79  sfr_1  35  factor       1.00000000
  drn_1  80  sfr_1  34  factor       1.00000000
  drn_1  81  sfr_1  33  factor       1.00000000
  drn_1  82  sfr_1  32  factor       1.00000000
  drn_1  83  sfr_1  31  factor       1.00000000
  drn_1  84  sfr_1  25  factor       1.00000000
  drn_1  85  sfr_1  6  factor       1.00000000
  drn_1  86  sfr_1  7  factor       1.00000000
  drn_1  87  sfr_1  36  factor       1.00000000
  drn_1  88  sfr_1  35  factor       1.00000000
  drn_1  89  sfr_1  34  factor       1.00000000
  drn_1  90  sfr_1  33  factor       1.00000000
  drn_1  91  sfr_1  32  factor       1.00000000
  drn_1  92  sfr_1  31  factor       1.00000000
  drn_1  93  sfr_1  26  factor       1.00000000
  drn_1  94  sfr_1  7  factor       1.00000000
  drn_1  95  sfr_1  7  factor       1.00000000
  drn_1  96  sfr_1  36  factor       1.00000000
  drn_1  97  sfr_1  35  factor       1.00000000
  drn_1  98  sfr_1  34  factor       1.00000000
  drn_1  99  sfr_1  33  factor       1.00000000
  drn_1  100  sfr_1  32  factor       1.00000000
  drn_1  101  sfr_1  31  factor       1.00000000
  drn_1  102  sfr_1  30  factor       1.00000000
  drn_1  103  sfr_1  29  factor       1.00000000
  drn_1  104  sfr_1  7  factor       1.00000000
  drn_1  105  sfr_1  35  factor       1.00000000
  drn_1  106  sfr_1  34  factor       1.00000000
  drn_1  107  sfr_1  33  factor       1.00000000
  drn_1  108  sfr_1  32  factor       1.00000000
  drn_1  109  sfr_1  31  factor       1.00000000
  drn_1  110  sfr_1  7  factor       1.00000000
  drn_1  111  sfr_1  7  factor       1.00000000
  drn_1  112  sfr_1  28  factor       1.00000000
  drn_1  113  sfr_1  35  factor       1.00000000
  drn_1  114  sfr_1  34  factor       1.00000000
  drn_1  115  sfr_1  33  factor       1.00000000
  drn_1  116  sfr_1  32  factor       1.00000000
END period  1

