begin options
  digits 10
  print_input
end options

begin Continuous FILEOUT rch.obs.csv
  rch1     RCH    1  1 22
  rch2     RCH    1 35 23
end Continuous
