# Discretization file for MODFLOW, generated by Flopy.
         2       101       101        50         4         2
  0  0
CONSTANT    1.420000E+02                           #delr                          
CONSTANT    1.420000E+02                           #delc                          
CONSTANT   -5.000000E+01                           #model_top                     
CONSTANT   -1.429000E+02                           #botm Layer 1                  
CONSTANT   -5.149000E+02                           #botm Layer 2                  
      0.000050878             1  1.000000  TR 
      0.000061054             1  1.000000  TR 
      0.000073265             1  1.000000  TR 
      0.000087918             1  1.000000  TR 
      0.000105501             1  1.000000  TR 
      0.000126601             1  1.000000  TR 
      0.000151921             1  1.000000  TR 
      0.000182306             1  1.000000  TR 
      0.000218767             1  1.000000  TR 
      0.000262520             1  1.000000  TR 
      0.000315024             1  1.000000  TR 
      0.000378029             1  1.000000  TR 
      0.000453635             1  1.000000  TR 
      0.000544362             1  1.000000  TR 
      0.000653235             1  1.000000  TR 
      0.000783881             1  1.000000  TR 
      0.000940658             1  1.000000  TR 
      0.001128789             1  1.000000  TR 
      0.001354547             1  1.000000  TR 
      0.001625457             1  1.000000  TR 
      0.001950548             1  1.000000  TR 
      0.002340658             1  1.000000  TR 
      0.002808789             1  1.000000  TR 
      0.003370547             1  1.000000  TR 
      0.004044656             1  1.000000  TR 
      0.004853587             1  1.000000  TR 
      0.005824305             1  1.000000  TR 
      0.006989166             1  1.000000  TR 
      0.008386999             1  1.000000  TR 
      0.010064399             1  1.000000  TR 
      0.012077279             1  1.000000  TR 
      0.014492734             1  1.000000  TR 
      0.017391281             1  1.000000  TR 
      0.020869538             1  1.000000  TR 
      0.025043445             1  1.000000  TR 
      0.030052134             1  1.000000  TR 
      0.036062561             1  1.000000  TR 
      0.043275073             1  1.000000  TR 
      0.051930088             1  1.000000  TR 
      0.062316105             1  1.000000  TR 
      0.074779326             1  1.000000  TR 
      0.089735192             1  1.000000  TR 
      0.107682230             1  1.000000  TR 
      0.129218676             1  1.000000  TR 
      0.155062411             1  1.000000  TR 
      0.186074893             1  1.000000  TR 
      0.223289872             1  1.000000  TR 
      0.267947846             1  1.000000  TR 
      0.321537415             1  1.000000  TR 
      0.385844898             1  1.000000  TR 
