# DRN for MODFLOW, generated by Flopy.
         2         0
         2         0 # stress period 0
         1        51        51  0.548055 111.376297
         2        51        51  0.548055 445.984894
         2         0 # stress period 1
         1        51        51  0.548036 111.376297
         2        51        51  0.548036 445.984894
         2         0 # stress period 2
         1        51        51  0.548014 111.376297
         2        51        51  0.548014 445.984894
         2         0 # stress period 3
         1        51        51  0.547987 111.376297
         2        51        51  0.547987 445.984894
         2         0 # stress period 4
         1        51        51  0.547955 111.376297
         2        51        51  0.547955 445.984894
         2         0 # stress period 5
         1        51        51  0.547917 111.376297
         2        51        51  0.547917 445.984894
         2         0 # stress period 6
         1        51        51  0.547871 111.376297
         2        51        51  0.547871 445.984894
         2         0 # stress period 7
         1        51        51  0.547816 111.376297
         2        51        51  0.547816 445.984894
         2         0 # stress period 8
         1        51        51  0.547750 111.376297
         2        51        51  0.547750 445.984894
         2         0 # stress period 9
         1        51        51  0.547670 111.376297
         2        51        51  0.547670 445.984894
         2         0 # stress period 10
         1        51        51  0.547575 111.376297
         2        51        51  0.547575 445.984894
         2         0 # stress period 11
         1        51        51  0.547461 111.376297
         2        51        51  0.547461 445.984894
         2         0 # stress period 12
         1        51        51  0.547324 111.376297
         2        51        51  0.547324 445.984894
         2         0 # stress period 13
         1        51        51  0.547161 111.376297
         2        51        51  0.547161 445.984894
         2         0 # stress period 14
         1        51        51  0.546964 111.376297
         2        51        51  0.546964 445.984894
         2         0 # stress period 15
         1        51        51  0.546729 111.376297
         2        51        51  0.546729 445.984894
         2         0 # stress period 16
         1        51        51  0.546448 111.376297
         2        51        51  0.546448 445.984894
         2         0 # stress period 17
         1        51        51  0.546111 111.376297
         2        51        51  0.546111 445.984894
         2         0 # stress period 18
         1        51        51  0.545708 111.376297
         2        51        51  0.545708 445.984894
         2         0 # stress period 19
         1        51        51  0.545227 111.376297
         2        51        51  0.545227 445.984894
         2         0 # stress period 20
         1        51        51  0.544652 111.376297
         2        51        51  0.544652 445.984894
         2         0 # stress period 21
         1        51        51  0.543966 111.376297
         2        51        51  0.543966 445.984894
         2         0 # stress period 22
         1        51        51  0.543149 111.376297
         2        51        51  0.543149 445.984894
         2         0 # stress period 23
         1        51        51  0.542177 111.376297
         2        51        51  0.542177 445.984894
         2         0 # stress period 24
         1        51        51  0.541022 111.376297
         2        51        51  0.541022 445.984894
         2         0 # stress period 25
         1        51        51  0.539653 111.376297
         2        51        51  0.539653 445.984894
         2         0 # stress period 26
         1        51        51  0.538034 111.376297
         2        51        51  0.538034 445.984894
         2         0 # stress period 27
         1        51        51  0.536124 111.376297
         2        51        51  0.536124 445.984894
         2         0 # stress period 28
         1        51        51  0.533879 111.376297
         2        51        51  0.533879 445.984894
         2         0 # stress period 29
         1        51        51  0.531250 111.376297
         2        51        51  0.531250 445.984894
         2         0 # stress period 30
         1        51        51  0.528187 111.376297
         2        51        51  0.528187 445.984894
         2         0 # stress period 31
         1        51        51  0.524637 111.376297
         2        51        51  0.524637 445.984894
         2         0 # stress period 32
         1        51        51  0.520551 111.376297
         2        51        51  0.520551 445.984894
         2         0 # stress period 33
         1        51        51  0.515882 111.376297
         2        51        51  0.515882 445.984894
         2         0 # stress period 34
         1        51        51  0.510596 111.376297
         2        51        51  0.510596 445.984894
         2         0 # stress period 35
         1        51        51  0.504672 111.376297
         2        51        51  0.504672 445.984894
         2         0 # stress period 36
         1        51        51  0.498132 111.376297
         2        51        51  0.498132 445.984894
         2         0 # stress period 37
         1        51        51  0.491354 111.376297
         2        51        51  0.491354 445.984894
         2         0 # stress period 38
         1        51        51  0.484516 111.376297
         2        51        51  0.484516 445.984894
         2         0 # stress period 39
         1        51        51  0.477680 111.376297
         2        51        51  0.477680 445.984894
         2         0 # stress period 40
         1        51        51  0.470927 111.376297
         2        51        51  0.470927 445.984894
         2         0 # stress period 41
         1        51        51  0.464345 111.376297
         2        51        51  0.464345 445.984894
         2         0 # stress period 42
         1        51        51  0.458021 111.376297
         2        51        51  0.458021 445.984894
         2         0 # stress period 43
         1        51        51  0.452037 111.376297
         2        51        51  0.452037 445.984894
         2         0 # stress period 44
         1        51        51  0.446456 111.376297
         2        51        51  0.446456 445.984894
         2         0 # stress period 45
         1        51        51  0.441312 111.376297
         2        51        51  0.441312 445.984894
         2         0 # stress period 46
         1        51        51  0.436611 111.376297
         2        51        51  0.436611 445.984894
         2         0 # stress period 47
         1        51        51  0.432332 111.376297
         2        51        51  0.432332 445.984894
         2         0 # stress period 48
         1        51        51  0.428429 111.376297
         2        51        51  0.428429 445.984894
         2         0 # stress period 49
         1        51        51  0.424846 111.376297
         2        51        51  0.424846 445.984894
