# LPF for MODFLOW, generated by Flopy.
        53    -1E+30         0  
         1 0 0
         0 0 0
         1 1 1
         0 0 0
         0 0 0
CONSTANT    1.000000E-03                           #hk Layer 1                    
CONSTANT    2.000000E-08                           #vka Layer 1                   
CONSTANT    1.000000E-04                           #hk Layer 2                    
CONSTANT    2.000000E-08                           #vka Layer 2                   
CONSTANT    2.000000E-04                           #hk Layer 2                    
CONSTANT    2.000000E-08                           #vka Layer 2                   
