BEGIN OPTIONS
  READASARRAYS
  FIXED_CELL
  AUXILIARY MYRCHMULT
#  AUXMULTNAME MYRCHMULT
  PRINT_FLOWS
  TAS6 FILEIN flow15.rch.tas
END OPTIONS

BEGIN PERIOD 1
  RECHARGE TIMEARRAYSERIES recharge
  MYRCHMULT
    CONSTANT 2.
END PERIOD
