# MVR6 input file, prepared by MF5to6 on 7/29/2016 at 10:56:36.

BEGIN Options
  PRINT_INPUT
  PRINT_FLOWS
END Options

BEGIN Dimensions
  MAXMVR  3
  MAXPACKAGES  2
END Dimensions

BEGIN Packages
  SFR-1
  LAK-1
END Packages

BEGIN Period 1
  SFR-1  6  LAK-1  1  FACTOR  1.000000000000000
  LAK-1  1  SFR-1  7  FACTOR  1.000000000000000
END Period
