BEGIN options
  DIGITS  20
  PRINT_INPUT
END options

BEGIN continuous  FILEOUT  holly.csub.fig5.obs.csv
  cunit1  interbed-compaction  1
  cunit2  interbed-compaction  2
  cunit3  interbed-compaction  3
  aquitard6  interbed-compaction  6
  aquitard7  interbed-compaction  7
  aquitard8  interbed-compaction  8
  nodelay4  interbed-compaction  4
  nodelay5  interbed-compaction  5
  nodelay9  interbed-compaction  9
  nodelay10  interbed-compaction  10
  delay11  interbed-compaction  11
  delay12  interbed-compaction  12
  delay13  interbed-compaction  13
  tc02  compaction-cell  2 1 1
  tc03  compaction-cell  3 1 1
  tc04  compaction-cell  4 1 1
  tc05  compaction-cell  5 1 1
  tc07  compaction-cell  7 1 1
  tc08  compaction-cell  8 1 1
  tc09  compaction-cell  9 1 1
  tc10  compaction-cell  10 1 1
  tc12  compaction-cell  12 1 1
  tc14  compaction-cell  14 1 1
  skc02  coarse-compaction  2 1 1
  skc03  coarse-compaction  3 1 1
  skc04  coarse-compaction  4 1 1
  skc05  coarse-compaction  5 1 1
  skc07  coarse-compaction  7 1 1
  skc08  coarse-compaction  8 1 1
  skc09  coarse-compaction  9 1 1
  skc10  coarse-compaction  10 1 1
  skc12  coarse-compaction  12 1 1
  skc14  coarse-compaction  14 1 1
END continuous  FILEOUT  holly.csub.fig5.obs.csv

BEGIN continuous  FILEOUT  holly.csub.estress.obs.csv
  es14  estress-cell  14 1 1
END continuous  FILEOUT  holly.csub.estress.obs.csv

