BEGIN options
  BOUNDNAMES
  GAMMAW      62.40000000
  BETA  2.22222222E-08
  NDELAYCELLS  39
  UPDATE_MATERIAL_PROPERTIES
  SPECIFIED_INITIAL_INTERBED_STATE
  OBS6  FILEIN  holly.csub.obs
END options

BEGIN dimensions
  NINTERBEDS  13
END dimensions

BEGIN griddata
  cg_ske_cr
    INTERNAL  FACTOR  1.0
           0.00000000
           0.00000000
           0.00000000
           0.00000000
      2.09749483E-06
           0.00000000
      2.09749483E-06
           0.00000000
           0.00000000
           0.00000000
           0.00000000
      2.09749483E-06
           0.00000000
      2.09749483E-06
  cg_theta
    CONSTANT       0.30000000
  sgm
    CONSTANT       1.70000000
  sgs
    CONSTANT       2.00000000
END griddata

BEGIN packagedata
  1  2 1 1  nodelay     155.10000000      18.00000000       1.00000000  4.12777217E-04  2.61205514E-06       0.30000000  -9.99999900E+06    -999.00000000  cunit
  2  3 1 1  nodelay     183.50000000      27.00000000       1.00000000  4.12777217E-04  2.61205514E-06       0.30000000  -9.99999900E+06    -999.00000000  cunit
  3  4 1 1  nodelay     205.90000000      21.00000000       1.00000000  4.12777217E-04  2.61205514E-06       0.30000000  -9.99999900E+06    -999.00000000  cunit
  4  5 1 1  nodelay     249.00000000       9.00000000       1.00000000  8.20271352E-05  3.82790000E-06       0.30000000  -9.99999900E+06    -999.00000000  nodelay
  5  7 1 1  nodelay     322.00000000       2.00000000       1.00000000  8.26214957E-05  3.51691000E-06       0.30000000  -9.99999900E+06    -999.00000000  nodelay
  6  8 1 1  nodelay     339.00000000      17.00000000       1.00000000  5.86716909E-04  1.04348873E-05       0.30000000  -9.99999900E+06    -999.00000000  aquitard
  7  9 1 1  nodelay     367.00000000      28.00000000       1.00000000  5.86716909E-04  1.04348873E-05       0.30000000  -9.99999900E+06    -999.00000000  aquitard
  8  10 1 1  nodelay     385.00000000      18.00000000       1.00000000  5.86716909E-04  1.04348873E-05       0.30000000  -9.99999900E+06    -999.00000000  aquitard
  9  12 1 1  nodelay     937.00000000      25.00000000       1.00000000  4.45986287E-05  1.95043000E-06       0.30000000  -9.99999900E+06    -999.00000000  nodelay
  10  14 1 1  nodelay    1113.00000000       3.00000000       1.00000000  6.60040904E-05  2.81695000E-06       0.30000000  -9.99999900E+06    -999.00000000  nodelay
  11  5 1 1  delay     249.00000000       9.00000000       1.92000000  6.92433413E-05  3.13717000E-06       0.30000000  1.50000000E-05      22.20000000  delay
  12  12 1 1  delay     937.00000000      10.00000000       1.66000000  1.48351430E-04  2.31307000E-06       0.30000000  1.50000000E-05      22.20000000  delay
  13  14 1 1  delay    1113.00000000       9.00000000       2.85000000  3.09983485E-04  2.09211000E-06       0.30000000  1.50000000E-05      18.20000000  delay
END packagedata

