BEGIN griddata
  strt
    INTERNAL  FACTOR  1.0
           0.00000000
           5.15000010
          11.10000038
          18.23999977
          22.20000076
          22.20000076
          22.20000076
          22.20000076
          22.20000076
          22.20000076
          22.20000076
          22.20000076
          18.20000076
          18.20000076
END griddata

