begin options
  PRINT_OPTION SUMMARY
end options

begin nonlinear
	outer_hclose 1.e-4
	outer_maximum 1000
	under_relaxation dbd
	UNDER_RELAXATION_theta 0.7
	UNDER_RELAXATION_kappa 0.
	UNDER_RELAXATION_gamma 0.
	UNDER_RELAXATION_momentum 0.
	BACKTRACKING_NUMBER 0	
end nonlinear

begin linear
	inner_hclose 1.0e-5
	inner_rclose 0.1
	inner_maximum 20
	LINEAR_ACCELERATION bicgstab
	scaling_method none
	REORDERING_METHOD none
	relaxation_factor 1.0
end linear
