begin options
  print_option summary
end options

begin nonlinear
	outer_dvclose 1.e-4
	outer_maximum 1000
	under_relaxation dbd
	under_relaxation_theta 0.7
	under_relaxation_kappa 0.
	under_relaxation_gamma 0.
	under_relaxation_momentum 0.
	backtracking_number 0	
end nonlinear

begin linear
	inner_dvclose 1.0e-5
	inner_rclose 0.1
	inner_maximum 20
	linear_acceleration bicgstab
	scaling_method none
	reordering_method none
	relaxation_factor 1.0
end linear
