BEGIN OPTIONS
  HEAD FILEOUT watertable.hds
  BUDGET FILEOUT watertable.cbb
END OPTIONS

BEGIN PERIOD 1
  PRINT BUDGET ALL
  SAVE BUDGET ALL
  PRINT HEAD ALL
  SAVE HEAD ALL
END PERIOD
