BEGIN OPTIONS
  READASARRAYS
  SAVE_FLOWS
END OPTIONS

BEGIN PERIOD 1
  RECHARGE
    constant 1.000000E-03
END PERIOD
