#option block.  Note -- no comments allowed on auxiliary line
begin options
  PRINT_INPUT
  PRINT_FLOWS
end options

begin dimensions
  MAXBOUND 2
end dimensions

begin period 1
1 1 1   20. 40.027294
1 1 100 11. 22.175083
end period
