BEGIN OPTIONS
END OPTIONS

BEGIN DIMENSIONS
  NLAY 1
  NROW 1
  NCOL 100
END DIMENSIONS

BEGIN GRIDDATA
  delr
    CONSTANT   5.000000E+01  DELR
  delc
    CONSTANT   1.000000E+00  DELC
  top
    CONSTANT   2.500000E+01  TOP
  botm
    CONSTANT   0.000000E+01  BOTTOM
END GRIDDATA




