begin options
  SAVE_FLOWS
end options
#
BEGIN GRIDDATA
  icelltype LAYERED
    constant 1
  k LAYERED
    constant 5.000000E+01
  K33
    constant 1.000000E+00
END GRIDDATA

