begin options
  #PRINT_INPUT
  PRINT_FLOWS
  SAVE_FLOWS
end options

begin dimensions
  MAXBOUND 2
end dimensions

begin period 1
1 1 1   20.
1 1 100 11.
end period
