BEGIN options
  TIME_UNITS  days
END options

BEGIN dimensions
  NPER  200
END dimensions

BEGIN perioddata
     365.00000000  50       1.00000000
     365.00000000  50       1.00000000
     365.00000000  50       1.00000000
     365.00000000  50       1.00000000
     365.00000000  50       1.00000000
     365.00000000  50       1.00000000
     365.00000000  50       1.00000000
     365.00000000  50       1.00000000
     365.00000000  50       1.00000000
     365.00000000  50       1.00000000
     365.00000000  50       1.00000000
     365.00000000  50       1.00000000
     365.00000000  50       1.00000000
     365.00000000  50       1.00000000
     365.00000000  50       1.00000000
     365.00000000  50       1.00000000
     365.00000000  50       1.00000000
     365.00000000  50       1.00000000
     365.00000000  50       1.00000000
     365.00000000  50       1.00000000
     365.00000000  50       1.00000000
     365.00000000  50       1.00000000
     365.00000000  50       1.00000000
     365.00000000  50       1.00000000
     365.00000000  50       1.00000000
     365.00000000  50       1.00000000
     365.00000000  50       1.00000000
     365.00000000  50       1.00000000
     365.00000000  50       1.00000000
     365.00000000  50       1.00000000
     365.00000000  50       1.00000000
     365.00000000  50       1.00000000
     365.00000000  50       1.00000000
     365.00000000  50       1.00000000
     365.00000000  50       1.00000000
     365.00000000  50       1.00000000
     365.00000000  50       1.00000000
     365.00000000  50       1.00000000
     365.00000000  50       1.00000000
     365.00000000  50       1.00000000
     365.00000000  50       1.00000000
     365.00000000  50       1.00000000
     365.00000000  50       1.00000000
     365.00000000  50       1.00000000
     365.00000000  50       1.00000000
     365.00000000  50       1.00000000
     365.00000000  50       1.00000000
     365.00000000  50       1.00000000
     365.00000000  50       1.00000000
     365.00000000  50       1.00000000
     365.00000000  50       1.00000000
     365.00000000  50       1.00000000
     365.00000000  50       1.00000000
     365.00000000  50       1.00000000
     365.00000000  50       1.00000000
     365.00000000  50       1.00000000
     365.00000000  50       1.00000000
     365.00000000  50       1.00000000
     365.00000000  50       1.00000000
     365.00000000  50       1.00000000
     365.00000000  50       1.00000000
     365.00000000  50       1.00000000
     365.00000000  50       1.00000000
     365.00000000  50       1.00000000
     365.00000000  50       1.00000000
     365.00000000  50       1.00000000
     365.00000000  50       1.00000000
     365.00000000  50       1.00000000
     365.00000000  50       1.00000000
     365.00000000  50       1.00000000
     365.00000000  50       1.00000000
     365.00000000  50       1.00000000
     365.00000000  50       1.00000000
     365.00000000  50       1.00000000
     365.00000000  50       1.00000000
     365.00000000  50       1.00000000
     365.00000000  50       1.00000000
     365.00000000  50       1.00000000
     365.00000000  50       1.00000000
     365.00000000  50       1.00000000
     365.00000000  50       1.00000000
     365.00000000  50       1.00000000
     365.00000000  50       1.00000000
     365.00000000  50       1.00000000
     365.00000000  50       1.00000000
     365.00000000  50       1.00000000
     365.00000000  50       1.00000000
     365.00000000  50       1.00000000
     365.00000000  50       1.00000000
     365.00000000  50       1.00000000
     365.00000000  50       1.00000000
     365.00000000  50       1.00000000
     365.00000000  50       1.00000000
     365.00000000  50       1.00000000
     365.00000000  50       1.00000000
     365.00000000  50       1.00000000
     365.00000000  50       1.00000000
     365.00000000  50       1.00000000
     365.00000000  50       1.00000000
     365.00000000  50       1.00000000
     365.00000000  50       1.00000000
     365.00000000  50       1.00000000
     365.00000000  50       1.00000000
     365.00000000  50       1.00000000
     365.00000000  50       1.00000000
     365.00000000  50       1.00000000
     365.00000000  50       1.00000000
     365.00000000  50       1.00000000
     365.00000000  50       1.00000000
     365.00000000  50       1.00000000
     365.00000000  50       1.00000000
     365.00000000  50       1.00000000
     365.00000000  50       1.00000000
     365.00000000  50       1.00000000
     365.00000000  50       1.00000000
     365.00000000  50       1.00000000
     365.00000000  50       1.00000000
     365.00000000  50       1.00000000
     365.00000000  50       1.00000000
     365.00000000  50       1.00000000
     365.00000000  50       1.00000000
     365.00000000  50       1.00000000
     365.00000000  50       1.00000000
     365.00000000  50       1.00000000
     365.00000000  50       1.00000000
     365.00000000  50       1.00000000
     365.00000000  50       1.00000000
     365.00000000  50       1.00000000
     365.00000000  50       1.00000000
     365.00000000  50       1.00000000
     365.00000000  50       1.00000000
     365.00000000  50       1.00000000
     365.00000000  50       1.00000000
     365.00000000  50       1.00000000
     365.00000000  50       1.00000000
     365.00000000  50       1.00000000
     365.00000000  50       1.00000000
     365.00000000  50       1.00000000
     365.00000000  50       1.00000000
     365.00000000  50       1.00000000
     365.00000000  50       1.00000000
     365.00000000  50       1.00000000
     365.00000000  50       1.00000000
     365.00000000  50       1.00000000
     365.00000000  50       1.00000000
     365.00000000  50       1.00000000
     365.00000000  50       1.00000000
     365.00000000  50       1.00000000
     365.00000000  50       1.00000000
     365.00000000  50       1.00000000
     365.00000000  50       1.00000000
     365.00000000  50       1.00000000
     365.00000000  50       1.00000000
     365.00000000  50       1.00000000
     365.00000000  50       1.00000000
     365.00000000  50       1.00000000
     365.00000000  50       1.00000000
     365.00000000  50       1.00000000
     365.00000000  50       1.00000000
     365.00000000  50       1.00000000
     365.00000000  50       1.00000000
     365.00000000  50       1.00000000
     365.00000000  50       1.00000000
     365.00000000  50       1.00000000
     365.00000000  50       1.00000000
     365.00000000  50       1.00000000
     365.00000000  50       1.00000000
     365.00000000  50       1.00000000
     365.00000000  50       1.00000000
     365.00000000  50       1.00000000
     365.00000000  50       1.00000000
     365.00000000  50       1.00000000
     365.00000000  50       1.00000000
     365.00000000  50       1.00000000
     365.00000000  50       1.00000000
     365.00000000  50       1.00000000
     365.00000000  50       1.00000000
     365.00000000  50       1.00000000
     365.00000000  50       1.00000000
     365.00000000  50       1.00000000
     365.00000000  50       1.00000000
     365.00000000  50       1.00000000
     365.00000000  50       1.00000000
     365.00000000  50       1.00000000
     365.00000000  50       1.00000000
     365.00000000  50       1.00000000
     365.00000000  50       1.00000000
     365.00000000  50       1.00000000
     365.00000000  50       1.00000000
     365.00000000  50       1.00000000
     365.00000000  50       1.00000000
     365.00000000  50       1.00000000
     365.00000000  50       1.00000000
     365.00000000  50       1.00000000
     365.00000000  50       1.00000000
     365.00000000  50       1.00000000
     365.00000000  50       1.00000000
     365.00000000  50       1.00000000
     365.00000000  50       1.00000000
     365.00000000  50       1.00000000
END perioddata

