begin options
  print_option  all
  no_ptc  true
end options

begin nonlinear
  outer_dvclose  1.00000000e-08
  outer_maximum  100
  under_relaxation  dbd
end nonlinear

begin linear
  inner_maximum  300
  inner_dvclose  1.00000000e-09
  inner_rclose  1.00000000e-08
  linear_acceleration  bicgstab
  relaxation_factor       0.97000000
  scaling_method  none
  reordering_method  none
end linear
