BEGIN options
  SAVE_FLOWS
  
  SAVE_SPECIFIC_DISCHARGE
END options

BEGIN griddata
  icelltype
    CONSTANT  0
  k  LAYERED
    INTERNAL  FACTOR  1.0
           0.41065000       0.41065000       0.41065000       0.41065000       0.41065000       0.41065000       0.41065000       0.41065000       0.41065000       0.41065000       0.41065000       0.41065000       0.41065000       0.41065000       0.41065000       0.41065000       0.41065000       0.41065000       0.41065000       0.41065000
           0.41065000       0.41065000  1.00000000E-08  1.00000000E-08  1.00000000E-08  1.00000000E-08  1.00000000E-08  1.00000000E-08  1.00000000E-08  1.00000000E-08  1.00000000E-08  1.00000000E-08  1.00000000E-08  1.00000000E-08  1.00000000E-08  1.00000000E-08  1.00000000E-08  1.00000000E-08  1.00000000E-08  1.00000000E-08
      1.00000000E-08  1.00000000E-08  1.00000000E-08  1.00000000E-08  1.00000000E-08  1.00000000E-08  1.00000000E-08  1.00000000E-08  1.00000000E-08  1.00000000E-08  1.00000000E-08  1.00000000E-08  1.00000000E-08  1.00000000E-08  1.00000000E-08  1.00000000E-08  1.00000000E-08  1.00000000E-08  1.00000000E-08  1.00000000E-08
      1.00000000E-08  1.00000000E-08  1.00000000E-08  1.00000000E-08  1.00000000E-08  1.00000000E-08       0.41065000       0.41065000       0.41065000       0.41065000       0.41065000       0.41065000       0.41065000       0.41065000       0.41065000       0.41065000       0.41065000       0.41065000       0.41065000       0.41065000
           0.41065000       0.41065000       0.41065000       0.41065000       0.41065000       0.41065000       0.41065000       0.41065000
    INTERNAL  FACTOR  1.0
           0.41065000       0.41065000       0.41065000       0.41065000       0.41065000       0.41065000       0.41065000       0.41065000       0.41065000       0.41065000       0.41065000       0.41065000       0.41065000       0.41065000       0.41065000       0.41065000       0.41065000       0.41065000       0.41065000       0.41065000
           0.41065000       0.41065000       0.41065000       0.41065000       0.41065000       0.41065000       0.41065000       0.41065000       0.41065000       0.41065000       0.41065000       0.41065000       0.41065000       0.41065000       0.41065000       0.41065000       0.41065000       0.41065000       0.41065000       0.41065000
           0.41065000       0.41065000       0.41065000       0.41065000       0.41065000       0.41065000       0.41065000       0.41065000       0.41065000       0.41065000       0.41065000       0.41065000       0.41065000       0.41065000       0.41065000       0.41065000       0.41065000       0.41065000       0.41065000       0.41065000
           0.41065000       0.41065000       0.41065000       0.41065000       0.41065000       0.41065000       0.41065000       0.41065000       0.41065000       0.41065000       0.41065000       0.41065000       0.41065000       0.41065000       0.41065000       0.41065000       0.41065000       0.41065000       0.41065000       0.41065000
           0.41065000       0.41065000       0.41065000       0.41065000       0.41065000       0.41065000       0.41065000       0.41065000
    INTERNAL  FACTOR  1.0
           0.41065000       0.41065000       0.41065000       0.41065000       0.41065000       0.41065000       0.41065000       0.41065000       0.41065000       0.41065000       0.41065000       0.41065000       0.41065000       0.41065000       0.41065000       0.41065000       0.41065000       0.41065000       0.41065000       0.41065000
           0.41065000       0.41065000       0.41065000       0.41065000       0.41065000       0.41065000       0.41065000       0.41065000       0.41065000       0.41065000       0.41065000       0.41065000       0.41065000       0.41065000       0.41065000       0.41065000       0.41065000       0.41065000       0.41065000       0.41065000
           0.41065000       0.41065000       0.41065000       0.41065000       0.41065000       0.41065000       0.41065000       0.41065000       0.41065000       0.41065000       0.41065000       0.41065000       0.41065000       0.41065000       0.41065000       0.41065000       0.41065000       0.41065000       0.41065000       0.41065000
           0.41065000       0.41065000       0.41065000       0.41065000       0.41065000       0.41065000       0.41065000       0.41065000       0.41065000       0.41065000       0.41065000       0.41065000       0.41065000       0.41065000       0.41065000       0.41065000       0.41065000       0.41065000       0.41065000       0.41065000
           0.41065000       0.41065000       0.41065000       0.41065000       0.41065000       0.41065000       0.41065000       0.41065000
    INTERNAL  FACTOR  1.0
           0.41065000       0.41065000       0.41065000       0.41065000       0.41065000       0.41065000       0.41065000       0.41065000       0.41065000       0.41065000       0.41065000       0.41065000       0.41065000       0.41065000       0.41065000       0.41065000       0.41065000       0.41065000       0.41065000       0.41065000
           0.41065000       0.41065000       0.41065000       0.41065000       0.41065000       0.41065000       0.41065000       0.41065000       0.41065000       0.41065000       0.41065000       0.41065000       0.41065000       0.41065000       0.41065000       0.41065000       0.41065000       0.41065000       0.41065000       0.41065000
           0.41065000       0.41065000       0.41065000       0.41065000       0.41065000       0.41065000       0.41065000       0.41065000       0.41065000       0.41065000       0.41065000       0.41065000       0.41065000       0.41065000       0.41065000       0.41065000       0.41065000       0.41065000       0.41065000       0.41065000
           0.41065000       0.41065000       0.41065000       0.41065000       0.41065000       0.41065000       0.41065000       0.41065000       0.41065000       0.41065000       0.41065000       0.41065000       0.41065000       0.41065000       0.41065000       0.41065000       0.41065000       0.41065000       0.41065000       0.41065000
           0.41065000       0.41065000       0.41065000       0.41065000       0.41065000       0.41065000       0.41065000       0.41065000
    INTERNAL  FACTOR  1.0
           0.41065000       0.41065000       0.41065000       0.41065000       0.41065000       0.41065000       0.41065000       0.41065000       0.41065000       0.41065000       0.41065000       0.41065000       0.41065000       0.41065000       0.41065000       0.41065000       0.41065000       0.41065000       0.41065000       0.41065000
           0.41065000       0.41065000       0.41065000       0.41065000       0.41065000       0.41065000       0.41065000       0.41065000       0.41065000       0.41065000       0.41065000       0.41065000       0.41065000       0.41065000       0.41065000       0.41065000       0.41065000       0.41065000       0.41065000       0.41065000
           0.41065000       0.41065000       0.41065000       0.41065000       0.41065000       0.41065000       0.41065000       0.41065000       0.41065000       0.41065000       0.41065000       0.41065000       0.41065000       0.41065000       0.41065000       0.41065000       0.41065000       0.41065000       0.41065000       0.41065000
           0.41065000       0.41065000       0.41065000       0.41065000       0.41065000       0.41065000       0.41065000       0.41065000       0.41065000       0.41065000       0.41065000       0.41065000       0.41065000       0.41065000       0.41065000       0.41065000       0.41065000       0.41065000       0.41065000       0.41065000
           0.41065000       0.41065000       0.41065000       0.41065000       0.41065000       0.41065000       0.41065000       0.41065000
    INTERNAL  FACTOR  1.0
           0.41065000       0.41065000       0.41065000       0.41065000       0.41065000       0.41065000       0.41065000       0.41065000       0.41065000       0.41065000       0.41065000       0.41065000       0.41065000       0.41065000       0.41065000       0.41065000       0.41065000       0.41065000       0.41065000       0.41065000
           0.41065000       0.41065000       0.41065000       0.41065000       0.41065000       0.41065000       0.41065000       0.41065000       0.41065000       0.41065000       0.41065000       0.41065000       0.41065000       0.41065000       0.41065000       0.41065000       0.41065000       0.41065000       0.41065000       0.41065000
           0.41065000       0.41065000       0.41065000       0.41065000       0.41065000       0.41065000       0.41065000       0.41065000       0.41065000       0.41065000       0.41065000       0.41065000       0.41065000       0.41065000       0.41065000       0.41065000       0.41065000       0.41065000       0.41065000       0.41065000
           0.41065000       0.41065000       0.41065000       0.41065000       0.41065000       0.41065000       0.41065000       0.41065000       0.41065000       0.41065000       0.41065000       0.41065000       0.41065000       0.41065000       0.41065000       0.41065000       0.41065000       0.41065000       0.41065000       0.41065000
           0.41065000       0.41065000       0.41065000       0.41065000       0.41065000       0.41065000       0.41065000       0.41065000
    INTERNAL  FACTOR  1.0
           0.41065000       0.41065000       0.41065000       0.41065000       0.41065000       0.41065000       0.41065000       0.41065000       0.41065000       0.41065000       0.41065000       0.41065000       0.41065000       0.41065000       0.41065000       0.41065000       0.41065000       0.41065000       0.41065000       0.41065000
           0.41065000       0.41065000       0.41065000       0.41065000       0.41065000       0.41065000       0.41065000       0.41065000       0.41065000       0.41065000       0.41065000       0.41065000       0.41065000       0.41065000       0.41065000       0.41065000       0.41065000       0.41065000       0.41065000       0.41065000
           0.41065000       0.41065000       0.41065000       0.41065000       0.41065000       0.41065000       0.41065000       0.41065000       0.41065000       0.41065000       0.41065000       0.41065000       0.41065000       0.41065000       0.41065000       0.41065000       0.41065000       0.41065000       0.41065000       0.41065000
           0.41065000       0.41065000       0.41065000       0.41065000       0.41065000       0.41065000       0.41065000       0.41065000       0.41065000       0.41065000       0.41065000       0.41065000       0.41065000       0.41065000       0.41065000       0.41065000       0.41065000       0.41065000       0.41065000       0.41065000
           0.41065000       0.41065000       0.41065000       0.41065000       0.41065000       0.41065000       0.41065000       0.41065000
    INTERNAL  FACTOR  1.0
           0.41065000       0.41065000       0.41065000       0.41065000       0.41065000       0.41065000       0.41065000       0.41065000       0.41065000       0.41065000       0.41065000       0.41065000       0.41065000       0.41065000       0.41065000       0.41065000       0.41065000       0.41065000       0.41065000       0.41065000
           0.41065000       0.41065000       0.41065000       0.41065000       0.41065000       0.41065000       0.41065000       0.41065000       0.41065000       0.41065000       0.41065000       0.41065000       0.41065000       0.41065000       0.41065000       0.41065000       0.41065000       0.41065000       0.41065000       0.41065000
           0.41065000       0.41065000       0.41065000       0.41065000       0.41065000       0.41065000       0.41065000       0.41065000       0.41065000       0.41065000       0.41065000       0.41065000       0.41065000       0.41065000       0.41065000       0.41065000       0.41065000       0.41065000       0.41065000       0.41065000
           0.41065000       0.41065000       0.41065000       0.41065000       0.41065000       0.41065000       0.41065000       0.41065000       0.41065000       0.41065000       0.41065000       0.41065000       0.41065000       0.41065000       0.41065000       0.41065000       0.41065000       0.41065000       0.41065000       0.41065000
           0.41065000       0.41065000       0.41065000       0.41065000       0.41065000       0.41065000       0.41065000       0.41065000
    INTERNAL  FACTOR  1.0
           0.41065000       0.41065000       0.41065000       0.41065000       0.41065000       0.41065000       0.41065000       0.41065000       0.41065000       0.41065000       0.41065000       0.41065000       0.41065000       0.41065000       0.41065000       0.41065000       0.41065000       0.41065000       0.41065000       0.41065000
           0.41065000       0.41065000       0.41065000       0.41065000       0.41065000       0.41065000       0.41065000       0.41065000       0.41065000       0.41065000       0.41065000       0.41065000       0.41065000       0.41065000       0.41065000       0.41065000       0.41065000       0.41065000       0.41065000       0.41065000
           0.41065000       0.41065000       0.41065000       0.41065000       0.41065000       0.41065000       0.41065000       0.41065000       0.41065000       0.41065000       0.41065000       0.41065000       0.41065000       0.41065000       0.41065000       0.41065000       0.41065000       0.41065000       0.41065000       0.41065000
           0.41065000       0.41065000       0.41065000       0.41065000       0.41065000       0.41065000       0.41065000       0.41065000       0.41065000       0.41065000       0.41065000       0.41065000       0.41065000       0.41065000       0.41065000       0.41065000       0.41065000       0.41065000       0.41065000       0.41065000
           0.41065000       0.41065000       0.41065000       0.41065000       0.41065000       0.41065000       0.41065000       0.41065000
    INTERNAL  FACTOR  1.0
           0.41065000       0.41065000       0.41065000       0.41065000       0.41065000       0.41065000       0.41065000       0.41065000       0.41065000       0.41065000       0.41065000       0.41065000       0.41065000       0.41065000       0.41065000       0.41065000       0.41065000       0.41065000       0.41065000       0.41065000
           0.41065000       0.41065000       0.41065000       0.41065000       0.41065000       0.41065000       0.41065000       0.41065000       0.41065000       0.41065000       0.41065000       0.41065000       0.41065000       0.41065000       0.41065000       0.41065000       0.41065000       0.41065000       0.41065000       0.41065000
           0.41065000       0.41065000       0.41065000       0.41065000       0.41065000       0.41065000       0.41065000       0.41065000       0.41065000       0.41065000       0.41065000       0.41065000       0.41065000       0.41065000       0.41065000       0.41065000       0.41065000       0.41065000       0.41065000       0.41065000
           0.41065000       0.41065000       0.41065000       0.41065000       0.41065000       0.41065000       0.41065000       0.41065000       0.41065000       0.41065000       0.41065000       0.41065000       0.41065000       0.41065000       0.41065000       0.41065000       0.41065000       0.41065000       0.41065000       0.41065000
           0.41065000       0.41065000       0.41065000       0.41065000       0.41065000       0.41065000       0.41065000       0.41065000
    INTERNAL  FACTOR  1.0
           0.41065000       0.41065000       0.41065000       0.41065000       0.41065000       0.41065000       0.41065000       0.41065000       0.41065000       0.41065000       0.41065000       0.41065000       0.41065000       0.41065000       0.41065000       0.41065000       0.41065000       0.41065000       0.41065000       0.41065000
           0.41065000       0.41065000       0.41065000       0.41065000       0.41065000       0.41065000       0.41065000       0.41065000       0.41065000       0.41065000       0.41065000       0.41065000       0.41065000       0.41065000       0.41065000       0.41065000       0.41065000       0.41065000       0.41065000       0.41065000
           0.41065000       0.41065000       0.41065000       0.41065000       0.41065000       0.41065000       0.41065000       0.41065000       0.41065000       0.41065000       0.41065000       0.41065000       0.41065000       0.41065000       0.41065000       0.41065000       0.41065000       0.41065000       0.41065000       0.41065000
           0.41065000       0.41065000       0.41065000       0.41065000       0.41065000       0.41065000       0.41065000       0.41065000       0.41065000       0.41065000       0.41065000       0.41065000       0.41065000       0.41065000       0.41065000       0.41065000       0.41065000       0.41065000       0.41065000       0.41065000
           0.41065000       0.41065000       0.41065000       0.41065000       0.41065000       0.41065000       0.41065000       0.41065000
    INTERNAL  FACTOR  1.0
           0.41065000       0.41065000       0.41065000       0.41065000       0.41065000       0.41065000       0.41065000       0.41065000       0.41065000       0.41065000       0.41065000       0.41065000       0.41065000       0.41065000       0.41065000       0.41065000       0.41065000       0.41065000       0.41065000       0.41065000
           0.41065000       0.41065000       0.41065000       0.41065000       0.41065000       0.41065000       0.41065000       0.41065000       0.41065000       0.41065000       0.41065000       0.41065000       0.41065000       0.41065000       0.41065000       0.41065000       0.41065000       0.41065000       0.41065000       0.41065000
           0.41065000       0.41065000       0.41065000       0.41065000       0.41065000       0.41065000       0.41065000       0.41065000       0.41065000       0.41065000       0.41065000       0.41065000       0.41065000       0.41065000       0.41065000       0.41065000       0.41065000       0.41065000       0.41065000       0.41065000
           0.41065000       0.41065000       0.41065000       0.41065000       0.41065000       0.41065000       0.41065000       0.41065000       0.41065000       0.41065000       0.41065000       0.41065000       0.41065000       0.41065000       0.41065000       0.41065000       0.41065000       0.41065000       0.41065000       0.41065000
           0.41065000       0.41065000       0.41065000       0.41065000       0.41065000       0.41065000       0.41065000       0.41065000
    INTERNAL  FACTOR  1.0
           0.41065000       0.41065000       0.41065000       0.41065000       0.41065000       0.41065000       0.41065000       0.41065000       0.41065000       0.41065000       0.41065000       0.41065000       0.41065000       0.41065000       0.41065000       0.41065000       0.41065000       0.41065000       0.41065000       0.41065000
           0.41065000       0.41065000       0.41065000       0.41065000       0.41065000       0.41065000       0.41065000       0.41065000       0.41065000       0.41065000       0.41065000       0.41065000       0.41065000       0.41065000       0.41065000       0.41065000       0.41065000       0.41065000       0.41065000       0.41065000
           0.41065000       0.41065000       0.41065000       0.41065000       0.41065000       0.41065000       0.41065000       0.41065000       0.41065000       0.41065000       0.41065000       0.41065000       0.41065000       0.41065000       0.41065000       0.41065000       0.41065000       0.41065000       0.41065000       0.41065000
           0.41065000       0.41065000       0.41065000       0.41065000       0.41065000       0.41065000       0.41065000       0.41065000       0.41065000       0.41065000       0.41065000       0.41065000       0.41065000       0.41065000       0.41065000       0.41065000       0.41065000       0.41065000       0.41065000       0.41065000
           0.41065000       0.41065000       0.41065000       0.41065000       0.41065000       0.41065000       0.41065000       0.41065000
    INTERNAL  FACTOR  1.0
           0.41065000       0.41065000       0.41065000       0.41065000       0.41065000       0.41065000       0.41065000       0.41065000       0.41065000       0.41065000       0.41065000       0.41065000       0.41065000       0.41065000       0.41065000       0.41065000       0.41065000       0.41065000       0.41065000       0.41065000
           0.41065000       0.41065000       0.41065000       0.41065000       0.41065000       0.41065000       0.41065000       0.41065000       0.41065000       0.41065000       0.41065000       0.41065000       0.41065000       0.41065000       0.41065000       0.41065000       0.41065000       0.41065000       0.41065000       0.41065000
           0.41065000       0.41065000       0.41065000       0.41065000       0.41065000       0.41065000       0.41065000       0.41065000       0.41065000       0.41065000       0.41065000       0.41065000       0.41065000       0.41065000       0.41065000       0.41065000       0.41065000       0.41065000       0.41065000       0.41065000
           0.41065000       0.41065000       0.41065000       0.41065000       0.41065000       0.41065000       0.41065000       0.41065000       0.41065000       0.41065000       0.41065000       0.41065000       0.41065000       0.41065000       0.41065000       0.41065000       0.41065000       0.41065000       0.41065000       0.41065000
           0.41065000       0.41065000       0.41065000       0.41065000       0.41065000       0.41065000       0.41065000       0.41065000
    INTERNAL  FACTOR  1.0
           0.41065000       0.41065000       0.41065000       0.41065000       0.41065000       0.41065000       0.41065000       0.41065000       0.41065000       0.41065000       0.41065000       0.41065000       0.41065000       0.41065000       0.41065000       0.41065000       0.41065000       0.41065000       0.41065000       0.41065000
           0.41065000       0.41065000       0.41065000       0.41065000       0.41065000       0.41065000       0.41065000       0.41065000       0.41065000       0.41065000       0.41065000       0.41065000       0.41065000       0.41065000       0.41065000       0.41065000       0.41065000       0.41065000       0.41065000       0.41065000
           0.41065000       0.41065000       0.41065000       0.41065000       0.41065000       0.41065000       0.41065000       0.41065000       0.41065000       0.41065000       0.41065000       0.41065000       0.41065000       0.41065000       0.41065000       0.41065000       0.41065000       0.41065000       0.41065000       0.41065000
           0.41065000       0.41065000       0.41065000       0.41065000       0.41065000       0.41065000       0.41065000       0.41065000       0.41065000       0.41065000       0.41065000       0.41065000       0.41065000       0.41065000       0.41065000       0.41065000       0.41065000       0.41065000       0.41065000       0.41065000
           0.41065000       0.41065000       0.41065000       0.41065000       0.41065000       0.41065000       0.41065000       0.41065000
    INTERNAL  FACTOR  1.0
           0.41065000       0.41065000       0.41065000       0.41065000       0.41065000       0.41065000       0.41065000       0.41065000       0.41065000       0.41065000       0.41065000       0.41065000       0.41065000       0.41065000       0.41065000       0.41065000       0.41065000       0.41065000       0.41065000       0.41065000
           0.41065000       0.41065000       0.41065000       0.41065000       0.41065000       0.41065000       0.41065000       0.41065000       0.41065000       0.41065000       0.41065000       0.41065000       0.41065000       0.41065000       0.41065000       0.41065000       0.41065000       0.41065000       0.41065000       0.41065000
           0.41065000       0.41065000       0.41065000       0.41065000       0.41065000       0.41065000       0.41065000       0.41065000       0.41065000       0.41065000       0.41065000       0.41065000       0.41065000       0.41065000       0.41065000       0.41065000       0.41065000       0.41065000       0.41065000       0.41065000
           0.41065000       0.41065000       0.41065000       0.41065000       0.41065000       0.41065000       0.41065000       0.41065000       0.41065000       0.41065000       0.41065000       0.41065000       0.41065000       0.41065000       0.41065000       0.41065000       0.41065000       0.41065000       0.41065000       0.41065000
           0.41065000       0.41065000       0.41065000       0.41065000       0.41065000       0.41065000       0.41065000       0.41065000
    INTERNAL  FACTOR  1.0
           0.41065000       0.41065000       0.41065000       0.41065000       0.41065000       0.41065000       0.41065000       0.41065000       0.41065000       0.41065000       0.41065000       0.41065000       0.41065000       0.41065000       0.41065000       0.41065000       0.41065000       0.41065000       0.41065000       0.41065000
           0.41065000       0.41065000       0.41065000       0.41065000       0.41065000       0.41065000       0.41065000       0.41065000       0.41065000       0.41065000       0.41065000       0.41065000       0.41065000       0.41065000       0.41065000       0.41065000       0.41065000       0.41065000       0.41065000       0.41065000
           0.41065000       0.41065000       0.41065000       0.41065000       0.41065000       0.41065000       0.41065000       0.41065000       0.41065000       0.41065000       0.41065000       0.41065000       0.41065000       0.41065000       0.41065000       0.41065000       0.41065000       0.41065000       0.41065000       0.41065000
           0.41065000       0.41065000       0.41065000       0.41065000       0.41065000       0.41065000       0.41065000       0.41065000       0.41065000       0.41065000       0.41065000       0.41065000       0.41065000       0.41065000       0.41065000       0.41065000       0.41065000       0.41065000       0.41065000       0.41065000
           0.41065000       0.41065000       0.41065000       0.41065000       0.41065000       0.41065000       0.41065000       0.41065000
    INTERNAL  FACTOR  1.0
           0.41065000       0.41065000       0.41065000       0.41065000       0.41065000       0.41065000       0.41065000       0.41065000       0.41065000       0.41065000       0.41065000       0.41065000       0.41065000       0.41065000       0.41065000       0.41065000       0.41065000       0.41065000       0.41065000       0.41065000
           0.41065000       0.41065000       0.41065000       0.41065000       0.41065000       0.41065000       0.41065000       0.41065000       0.41065000       0.41065000       0.41065000       0.41065000       0.41065000       0.41065000       0.41065000       0.41065000       0.41065000       0.41065000       0.41065000       0.41065000
           0.41065000       0.41065000       0.41065000       0.41065000       0.41065000       0.41065000       0.41065000       0.41065000       0.41065000       0.41065000       0.41065000       0.41065000       0.41065000       0.41065000       0.41065000       0.41065000       0.41065000       0.41065000       0.41065000       0.41065000
           0.41065000       0.41065000       0.41065000       0.41065000       0.41065000       0.41065000       0.41065000       0.41065000       0.41065000       0.41065000       0.41065000       0.41065000       0.41065000       0.41065000       0.41065000       0.41065000       0.41065000       0.41065000       0.41065000       0.41065000
           0.41065000       0.41065000       0.41065000       0.41065000       0.41065000       0.41065000       0.41065000       0.41065000
    INTERNAL  FACTOR  1.0
           0.41065000       0.41065000       0.41065000       0.41065000       0.41065000       0.41065000       0.41065000       0.41065000       0.41065000       0.41065000       0.41065000       0.41065000       0.41065000       0.41065000       0.41065000       0.41065000       0.41065000       0.41065000       0.41065000       0.41065000
           0.41065000       0.41065000       0.41065000       0.41065000       0.41065000       0.41065000       0.41065000       0.41065000       0.41065000       0.41065000       0.41065000       0.41065000       0.41065000       0.41065000       0.41065000       0.41065000       0.41065000       0.41065000       0.41065000       0.41065000
           0.41065000       0.41065000       0.41065000       0.41065000       0.41065000       0.41065000       0.41065000       0.41065000       0.41065000       0.41065000       0.41065000       0.41065000       0.41065000       0.41065000       0.41065000       0.41065000       0.41065000       0.41065000       0.41065000       0.41065000
           0.41065000       0.41065000       0.41065000       0.41065000       0.41065000       0.41065000       0.41065000       0.41065000       0.41065000       0.41065000       0.41065000       0.41065000       0.41065000       0.41065000       0.41065000       0.41065000       0.41065000       0.41065000       0.41065000       0.41065000
           0.41065000       0.41065000       0.41065000       0.41065000       0.41065000       0.41065000       0.41065000       0.41065000
    INTERNAL  FACTOR  1.0
           0.41065000       0.41065000       0.41065000       0.41065000       0.41065000       0.41065000       0.41065000       0.41065000       0.41065000       0.41065000       0.41065000       0.41065000       0.41065000       0.41065000       0.41065000       0.41065000       0.41065000       0.41065000       0.41065000       0.41065000