BEGIN options
END options

BEGIN dimensions
  NLAY  52
  NROW  1
  NCOL  88
END dimensions

BEGIN griddata
  delr
    INTERNAL  FACTOR  1.0
         6.81800000       6.81800000       6.81800000       6.81800000       6.81800000       6.81800000       6.81800000       6.81800000       6.81800000       6.81800000       6.81800000       6.81800000       6.81800000       6.81800000       6.81800000       6.81800000       6.81800000       6.81800000       6.81800000       6.81800000
         6.81800000       6.81800000       6.81800000       6.81800000       6.81800000       6.81800000       6.81800000       6.81800000       6.81800000       6.81800000       6.81800000       6.81800000       6.81800000       6.81800000       6.81800000       6.81800000       6.81800000       6.81800000       6.81800000       6.81800000
         6.81800000       6.81800000       6.81800000       6.81800000       6.81800000       6.81800000       6.81800000       6.81800000       6.81800000       6.81800000       6.81800000       6.81800000       6.81800000       6.81800000       6.81800000       6.81800000       6.81800000       6.81800000       6.81800000       6.81800000
         6.81800000       6.81800000       6.81800000       6.81800000       6.81800000       6.81800000       6.81800000       6.81800000       6.81800000       6.81800000       6.81800000       6.81800000       6.81800000       6.81800000       6.81800000       6.81800000       6.81800000       6.81800000       6.81800000       6.81800000
         6.81800000       6.81800000       6.81800000       6.81800000       6.81800000       6.81800000       6.81800000       6.81800000
  delc
    CONSTANT       1.00000000
  top
    INTERNAL  FACTOR  1.0
       150.30000000     150.30000000     150.30000000     150.30000000     150.30000000     150.30000000     150.30000000     150.30000000     150.30000000     150.30000000     150.30000000     150.30000000     150.30000000     150.30000000     150.30000000     150.30000000     150.30000000     150.30000000     150.30000000     150.30000000
       150.30000000     150.30000000     150.30000000     150.30000000     150.30000000     150.30000000     150.30000000     150.30000000     150.30000000     150.30000000     150.30000000     150.30000000     150.30000000     150.30000000     150.30000000     150.30000000     150.30000000     150.30000000     150.30000000     150.30000000
       150.30000000     150.30000000     150.30000000     150.30000000     150.30000000     150.30000000     150.30000000     150.30000000     150.30000000     150.30000000     150.30000000     150.30000000     150.30000000     150.30000000     150.30000000     150.30000000     150.30000000     150.30000000     150.30000000     150.30000000
       150.30000000     150.30000000     150.30000000     150.30000000     150.30000000     150.30000000     150.30000000     150.30000000     150.30000000     150.30000000     150.30000000     150.30000000     150.30000000     150.30000000     150.30000000     150.30000000     150.30000000     150.30000000     150.30000000     150.30000000
       150.30000000     150.30000000     150.30000000     150.30000000     150.30000000     150.30000000     150.30000000     150.30000000
  botm  LAYERED
    INTERNAL  FACTOR  1.0
         150.00000000     150.00000000     150.00000000     150.00000000     150.00000000     150.00000000     150.00000000     150.00000000     150.00000000     150.00000000     150.00000000     150.00000000     150.00000000     150.00000000     150.00000000     150.00000000     150.00000000     150.00000000     150.00000000     150.00000000
         150.00000000     150.00000000     150.00000000     150.00000000     150.00000000     150.00000000     150.00000000     150.00000000     150.00000000     150.00000000     150.00000000     150.00000000     150.00000000     150.00000000     150.00000000     150.00000000     150.00000000     150.00000000     150.00000000     150.00000000
         150.00000000     150.00000000     150.00000000     150.00000000     150.00000000     150.00000000     150.00000000     150.00000000     150.00000000     150.00000000     150.00000000     150.00000000     150.00000000     150.00000000     150.00000000     150.00000000     150.00000000     150.00000000     150.00000000     150.00000000
         150.00000000     150.00000000     150.00000000     150.00000000     150.00000000     150.00000000     150.00000000     150.00000000     150.00000000     150.00000000     150.00000000     150.00000000     150.00000000     150.00000000     150.00000000     150.00000000     150.00000000     150.00000000     150.00000000     150.00000000
         150.00000000     150.00000000     150.00000000     150.00000000     150.00000000     150.00000000     150.00000000     150.00000000
    INTERNAL  FACTOR  1.0
         147.00000000     147.00000000     147.00000000     147.00000000     147.00000000     147.00000000     147.00000000     147.00000000     147.00000000     147.00000000     147.00000000     147.00000000     147.00000000     147.00000000     147.00000000     147.00000000     147.00000000     147.00000000     147.00000000     147.00000000
         147.00000000     147.00000000     147.00000000     147.00000000     147.00000000     147.00000000     147.00000000     147.00000000     147.00000000     147.00000000     147.00000000     147.00000000     147.00000000     147.00000000     147.00000000     147.00000000     147.00000000     147.00000000     147.00000000     147.00000000
         147.00000000     147.00000000     147.00000000     147.00000000     147.00000000     147.00000000     147.00000000     147.00000000     147.00000000     147.00000000     147.00000000     147.00000000     147.00000000     147.00000000     147.00000000     147.00000000     147.00000000     147.00000000     147.00000000     147.00000000
         147.00000000     147.00000000     147.00000000     147.00000000     147.00000000     147.00000000     147.00000000     147.00000000     147.00000000     147.00000000     147.00000000     147.00000000     147.00000000     147.00000000     147.00000000     147.00000000     147.00000000     147.00000000     147.00000000     147.00000000
         147.00000000     147.00000000     147.00000000     147.00000000     147.00000000     147.00000000     147.00000000     147.00000000
    INTERNAL  FACTOR  1.0
         144.00000000     144.00000000     144.00000000     144.00000000     144.00000000     144.00000000     144.00000000     144.00000000     144.00000000     144.00000000     144.00000000     144.00000000     144.00000000     144.00000000     144.00000000     144.00000000     144.00000000     144.00000000     144.00000000     144.00000000
         144.00000000     144.00000000     144.00000000     144.00000000     144.00000000     144.00000000     144.00000000     144.00000000     144.00000000     144.00000000     144.00000000     144.00000000     144.00000000     144.00000000     144.00000000     144.00000000     144.00000000     144.00000000     144.00000000     144.00000000
         144.00000000     144.00000000     144.00000000     144.00000000     144.00000000     144.00000000     144.00000000     144.00000000     144.00000000     144.00000000     144.00000000     144.00000000     144.00000000     144.00000000     144.00000000     144.00000000     144.00000000     144.00000000     144.00000000     144.00000000
         144.00000000     144.00000000     144.00000000     144.00000000     144.00000000     144.00000000     144.00000000     144.00000000     144.00000000     144.00000000     144.00000000     144.00000000     144.00000000     144.00000000     144.00000000     144.00000000     144.00000000     144.00000000     144.00000000     144.00000000
         144.00000000     144.00000000     144.00000000     144.00000000     144.00000000     144.00000000     144.00000000     144.00000000
    INTERNAL  FACTOR  1.0
         141.00000000     141.00000000     141.00000000     141.00000000     141.00000000     141.00000000     141.00000000     141.00000000     141.00000000     141.00000000     141.00000000     141.00000000     141.00000000     141.00000000     141.00000000     141.00000000     141.00000000     141.00000000     141.00000000     141.00000000
         141.00000000     141.00000000     141.00000000     141.00000000     141.00000000     141.00000000     141.00000000     141.00000000     141.00000000     141.00000000     141.00000000     141.00000000     141.00000000     141.00000000     141.00000000     141.00000000     141.00000000     141.00000000     141.00000000     141.00000000
         141.00000000     141.00000000     141.00000000     141.00000000     141.00000000     141.00000000     141.00000000     141.00000000     141.00000000     141.00000000     141.00000000     141.00000000     141.00000000     141.00000000     141.00000000     141.00000000     141.00000000     141.00000000     141.00000000     141.00000000
         141.00000000     141.00000000     141.00000000     141.00000000     141.00000000     141.00000000     141.00000000     141.00000000     141.00000000     141.00000000     141.00000000     141.00000000     141.00000000     141.00000000     141.00000000     141.00000000     141.00000000     141.00000000     141.00000000     141.00000000
         141.00000000     141.00000000     141.00000000     141.00000000     141.00000000     141.00000000     141.00000000     141.00000000
    INTERNAL  FACTOR  1.0
         138.00000000     138.00000000     138.00000000     138.00000000     138.00000000     138.00000000     138.00000000     138.00000000     138.00000000     138.00000000     138.00000000     138.00000000     138.00000000     138.00000000     138.00000000     138.00000000     138.00000000     138.00000000     138.00000000     138.00000000
         138.00000000     138.00000000     138.00000000     138.00000000     138.00000000     138.00000000     138.00000000     138.00000000     138.00000000     138.00000000     138.00000000     138.00000000     138.00000000     138.00000000     138.00000000     138.00000000     138.00000000     138.00000000     138.00000000     138.00000000
         138.00000000     138.00000000     138.00000000     138.00000000     138.00000000     138.00000000     138.00000000     138.00000000     138.00000000     138.00000000     138.00000000     138.00000000     138.00000000     138.00000000     138.00000000     138.00000000     138.00000000     138.00000000     138.00000000     138.00000000
         138.00000000     138.00000000     138.00000000     138.00000000     138.00000000     138.00000000     138.00000000     138.00000000     138.00000000     138.00000000     138.00000000     138.00000000     138.00000000     138.00000000     138.00000000     138.00000000     138.00000000     138.00000000     138.00000000     138.00000000
         138.00000000     138.00000000     138.00000000     138.00000000     138.00000000     138.00000000     138.00000000     138.00000000
    INTERNAL  FACTOR  1.0
         135.00000000     135.00000000     135.00000000     135.00000000     135.00000000     135.00000000     135.00000000     135.00000000     135.00000000     135.00000000     135.00000000     135.00000000     135.00000000     135.00000000     135.00000000     135.00000000     135.00000000     135.00000000     135.00000000     135.00000000
         135.00000000     135.00000000     135.00000000     135.00000000     135.00000000     135.00000000     135.00000000     135.00000000     135.00000000     135.00000000     135.00000000     135.00000000     135.00000000     135.00000000     135.00000000     135.00000000     135.00000000     135.00000000     135.00000000     135.00000000
         135.00000000     135.00000000     135.00000000     135.00000000     135.00000000     135.00000000     135.00000000     135.00000000     135.00000000     135.00000000     135.00000000     135.00000000     135.00000000     135.00000000     135.00000000     135.00000000     135.00000000     135.00000000     135.00000000     135.00000000
         135.00000000     135.00000000     135.00000000     135.00000000     135.00000000     135.00000000     135.00000000     135.00000000     135.00000000     135.00000000     135.00000000     135.00000000     135.00000000     135.00000000     135.00000000     135.00000000     135.00000000     135.00000000     135.00000000     135.00000000
         135.00000000     135.00000000     135.00000000     135.00000000     135.00000000     135.00000000     135.00000000     135.00000000
    INTERNAL  FACTOR  1.0
         132.00000000     132.00000000     132.00000000     132.00000000     132.00000000     132.00000000     132.00000000     132.00000000     132.00000000     132.00000000     132.00000000     132.00000000     132.00000000     132.00000000     132.00000000     132.00000000     132.00000000     132.00000000     132.00000000     132.00000000
         132.00000000     132.00000000     132.00000000     132.00000000     132.00000000     132.00000000     132.00000000     132.00000000     132.00000000     132.00000000     132.00000000     132.00000000     132.00000000     132.00000000     132.00000000     132.00000000     132.00000000     132.00000000     132.00000000     132.00000000
         132.00000000     132.00000000     132.00000000     132.00000000     132.00000000     132.00000000     132.00000000     132.00000000     132.00000000     132.00000000     132.00000000     132.00000000     132.00000000     132.00000000     132.00000000     132.00000000     132.00000000     132.00000000     132.00000000     132.00000000
         132.00000000     132.00000000     132.00000000     132.00000000     132.00000000     132.00000000     132.00000000     132.00000000     132.00000000     132.00000000     132.00000000     132.00000000     132.00000000     132.00000000     132.00000000     132.00000000     132.00000000     132.00000000     132.00000000     132.00000000
         132.00000000     132.00000000     132.00000000     132.00000000     132.00000000     132.00000000     132.00000000     132.00000000
    INTERNAL  FACTOR  1.0
         129.00000000     129.00000000     129.00000000     129.00000000     129.00000000     129.00000000     129.00000000     129.00000000     129.00000000     129.00000000     129.00000000     129.00000000     129.00000000     129.00000000     129.00000000     129.00000000     129.00000000     129.00000000     129.00000000     129.00000000
         129.00000000     129.00000000     129.00000000     129.00000000     129.00000000     129.00000000     129.00000000     129.00000000     129.00000000     129.00000000     129.00000000     129.00000000     129.00000000     129.00000000     129.00000000     129.00000000     129.00000000     129.00000000     129.00000000     129.00000000
         129.00000000     129.00000000     129.00000000     129.00000000     129.00000000     129.00000000     129.00000000     129.00000000     129.00000000     129.00000000     129.00000000     129.00000000     129.00000000     129.00000000     129.00000000     129.00000000     129.00000000     129.00000000     129.00000000     129.00000000
         129.00000000     129.00000000     129.00000000     129.00000000     129.00000000     129.00000000     129.00000000     129.00000000     129.00000000     129.00000000     129.00000000     129.00000000     129.00000000     129.00000000     129.00000000     129.00000000     129.00000000     129.00000000     129.00000000     129.00000000
         129.00000000     129.00000000     129.00000000     129.00000000     129.00000000     129.00000000     129.00000000     129.00000000
    INTERNAL  FACTOR  1.0
         126.00000000     126.00000000     126.00000000     126.00000000     126.00000000     126.00000000     126.00000000     126.00000000     126.00000000     126.00000000     126.00000000     126.00000000     126.00000000     126.00000000     126.00000000     126.00000000     126.00000000     126.00000000     126.00000000     126.00000000
         126.00000000     126.00000000     126.00000000     126.00000000     126.00000000     126.00000000     126.00000000     126.00000000     126.00000000     126.00000000     126.00000000     126.00000000     126.00000000     126.00000000     126.00000000     126.00000000     126.00000000     126.00000000     126.00000000     126.00000000
         126.00000000     126.00000000     126.00000000     126.00000000     126.00000000     126.00000000     126.00000000     126.00000000     126.00000000     126.00000000     126.00000000     126.00000000     126.00000000     126.00000000     126.00000000     126.00000000     126.00000000     126.00000000     126.00000000     126.00000000
         126.00000000     126.00000000     126.00000000     126.00000000     126.00000000     126.00000000     126.00000000     126.00000000     126.00000000     126.00000000     126.00000000     126.00000000     126.00000000     126.00000000     126.00000000     126.00000000     126.00000000     126.00000000     126.00000000     126.00000000
         126.00000000     126.00000000     126.00000000     126.00000000     126.00000000     126.00000000     126.00000000     126.00000000
    INTERNAL  FACTOR  1.0
         123.00000000     123.00000000     123.00000000     123.00000000     123.00000000     123.00000000     123.00000000     123.00000000     123.00000000     123.00000000     123.00000000     123.00000000     123.00000000     123.00000000     123.00000000     123.00000000     123.00000000     123.00000000     123.00000000     123.00000000
         123.00000000     123.00000000     123.00000000     123.00000000     123.00000000     123.00000000     123.00000000     123.00000000     123.00000000     123.00000000     123.00000000     123.00000000     123.00000000     123.00000000     123.00000000     123.00000000     123.00000000     123.00000000     123.00000000     123.00000000
         123.00000000     123.00000000     123.00000000     123.00000000     123.00000000     123.00000000     123.00000000     123.00000000     123.00000000     123.00000000     123.00000000     123.00000000     123.00000000     123.00000000     123.00000000     123.00000000     123.00000000     123.00000000     123.00000000     123.00000000
         123.00000000     123.00000000     123.00000000     123.00000000     123.00000000     123.00000000     123.00000000     123.00000000     123.00000000     123.00000000     123.00000000     123.00000000     123.00000000     123.00000000     123.00000000     123.00000000     123.00000000     123.00000000     123.00000000     123.00000000
         123.00000000     123.00000000     123.00000000     123.00000000     123.00000000     123.00000000     123.00000000     123.00000000
    INTERNAL  FACTOR  1.0
         120.00000000     120.00000000     120.00000000     120.00000000     120.00000000     120.00000000     120.00000000     120.00000000     120.00000000     120.00000000     120.00000000     120.00000000     120.00000000     120.00000000     120.00000000     120.00000000     120.00000000     120.00000000     120.00000000     120.00000000
         120.00000000     120.00000000     120.00000000     120.00000000     120.00000000     120.00000000     120.00000000     120.00000000     120.00000000     120.00000000     120.00000000     120.00000000     120.00000000     120.00000000     120.00000000     120.00000000     120.00000000     120.00000000     120.00000000     120.00000000
         120.00000000     120.00000000     120.00000000     120.00000000     120.00000000     120.00000000     120.00000000     120.00000000     120.00000000     120.00000000     120.00000000     120.00000000     120.00000000     120.00000000     120.00000000     120.00000000     120.00000000     120.00000000     120.00000000     120.00000000
         120.00000000     120.00000000     120.00000000     120.00000000     120.00000000     120.00000000     120.00000000     120.00000000     120.00000000     120.00000000     120.00000000     120.00000000     120.00000000     120.00000000     120.00000000     120.00000000     120.00000000     120.00000000     120.00000000     120.00000000
         120.00000000     120.00000000     120.00000000     120.00000000     120.00000000     120.00000000     120.00000000     120.00000000
    INTERNAL  FACTOR  1.0
         117.00000000     117.00000000     117.00000000     117.00000000     117.00000000     117.00000000     117.00000000     117.00000000     117.00000000     117.00000000     117.00000000     117.00000000     117.00000000     117.00000000     117.00000000     117.00000000     117.00000000     117.00000000     117.00000000     117.00000000
         117.00000000     117.00000000     117.00000000     117.00000000     117.00000000     117.00000000     117.00000000     117.00000000     117.00000000     117.00000000     117.00000000     117.00000000     117.00000000     117.00000000     117.00000000     117.00000000     117.00000000     117.00000000     117.00000000     117.00000000
         117.00000000     117.00000000     117.00000000     117.00000000     117.00000000     117.00000000     117.00000000     117.00000000     117.00000000     117.00000000     117.00000000     117.00000000     117.00000000     117.00000000     117.00000000     117.00000000     117.00000000     117.00000000     117.00000000     117.00000000
         117.00000000     117.00000000     117.00000000     117.00000000     117.00000000     117.00000000     117.00000000     117.00000000     117.00000000     117.00000000     117.00000000     117.00000000     117.00000000     117.00000000     117.00000000     117.00000000     117.00000000     117.00000000     117.00000000     117.00000000
         117.00000000     117.00000000     117.00000000     117.00000000     117.00000000     117.00000000     117.00000000     117.00000000
    INTERNAL  FACTOR  1.0
         114.00000000     114.00000000     114.00000000     114.00000000     114.00000000     114.00000000     114.00000000     114.00000000     114.00000000     114.00000000     114.00000000     114.00000000     114.00000000     114.00000000     114.00000000     114.00000000     114.00000000     114.00000000     114.00000000     114.00000000
         114.00000000     114.00000000     114.00000000     114.00000000     114.00000000     114.00000000     114.00000000     114.00000000     114.00000000     114.00000000     114.00000000     114.00000000     114.00000000     114.00000000     114.00000000     114.00000000     114.00000000     114.00000000     114.00000000     114.00000000
         114.00000000     114.00000000     114.00000000     114.00000000     114.00000000     114.00000000     114.00000000     114.00000000     114.00000000     114.00000000     114.00000000     114.00000000     114.00000000     114.00000000     114.00000000     114.00000000     114.00000000     114.00000000     114.00000000     114.00000000
         114.00000000     114.00000000     114.00000000     114.00000000     114.00000000     114.00000000     114.00000000     114.00000000     114.00000000     114.00000000     114.00000000     114.00000000     114.00000000     114.00000000     114.00000000     114.00000000     114.00000000     114.00000000     114.00000000     114.00000000
         114.00000000     114.00000000     114.00000000     114.00000000     114.00000000     114.00000000     114.00000000     114.00000000
    INTERNAL  FACTOR  1.0
         111.00000000     111.00000000     111.00000000     111.00000000     111.00000000     111.00000000     111.00000000     111.00000000     111.00000000     111.00000000     111.00000000     111.00000000     111.00000000     111.00000000     111.00000000     111.00000000     111.00000000     111.00000000     111.00000000     111.00000000
         111.00000000     111.00000000     111.00000000     111.00000000     111.00000000     111.00000000     111.00000000     111.00000000     111.00000000     111.00000000     111.00000000     111.00000000     111.00000000     111.00000000     111.00000000     111.00000000     111.00000000     111.00000000     111.00000000     111.00000000
         111.00000000     111.00000000     111.00000000     111.00000000     111.00000000     111.00000000     111.00000000     111.00000000     111.00000000     111.00000000     111.00000000     111.00000000     111.00000000     111.00000000     111.00000000     111.00000000     111.00000000     111.00000000     111.00000000     111.00000000
         111.00000000     111.00000000     111.00000000     111.00000000     111.00000000     111.00000000     111.00000000     111.00000000     111.00000000     111.00000000     111.00000000     111.00000000     111.00000000     111.00000000     111.00000000     111.00000000     111.00000000     111.00000000     111.00000000     111.00000000
         111.00000000     111.00000000     111.00000000     111.00000000     111.00000000     111.00000000     111.00000000     111.00000000
    INTERNAL  FACTOR  1.0
         108.00000000     108.00000000     108.00000000     108.00000000     108.00000000     108.00000000     108.00000000     108.00000000     108.00000000     108.00000000     108.00000000     108.00000000     108.00000000     108.00000000     108.00000000     108.00000000     108.00000000     108.00000000     108.00000000     108.00000000
         108.00000000     108.00000000     108.00000000     108.00000000     108.00000000     108.00000000     108.00000000     108.00000000     108.00000000     108.00000000     108.00000000     108.00000000     108.00000000     108.00000000     108.00000000     108.00000000     108.00000000     108.00000000     108.00000000     108.00000000
         108.00000000     108.00000000     108.00000000     108.00000000     108.00000000     108.00000000     108.00000000     108.00000000     108.00000000     108.00000000     108.00000000     108.00000000     108.00000000     108.00000000     108.00000000     108.00000000     108.00000000     108.00000000     108.00000000     108.00000000
         108.00000000     108.00000000     108.00000000     108.00000000     108.00000000     108.00000000     108.00000000     108.00000000     108.00000000     108.00000000     108.00000000     108.00000000     108.00000000     108.00000000     108.00000000     108.00000000     108.00000000     108.00000000     108.00000000     108.00000000
         108.00000000     108.00000000     108.00000000     108.00000000     108.00000000     108.00000000     108.00000000     108.00000000
    INTERNAL  FACTOR  1.0
         105.00000000     105.00000000     105.00000000     105.00000000     105.00000000     105.00000000     105.00000000     105.00000000     105.00000000     105.00000000     105.00000000     105.00000000     105.00000000     105.00000000     105.00000000     105.00000000     105.00000000     105.00000000     105.00000000     105.00000000
         105.00000000     105.00000000     105.00000000     105.00000000     105.00000000     105.00000000     105.00000000     105.00000000     105.00000000     105.00000000     105.00000000     105.00000000     105.00000000     105.00000000     105.00000000     105.00000000     105.00000000     105.00000000     105.00000000     105.00000000
         105.00000000     105.00000000     105.00000000     105.00000000     105.00000000     105.00000000     105.00000000     105.00000000     105.00000000     105.00000000     105.00000000     105.00000000     105.00000000     105.00000000     105.00000000     105.00000000     105.00000000     105.00000000     105.00000000     105.00000000
         105.00000000     105.00000000     105.00000000     105.00000000     105.00000000     105.00000000     105.00000000     105.00000000     105.00000000     105.00000000     105.00000000     105.00000000     105.00000000     105.00000000     105.00000000     105.00000000     105.00000000     105.00000000     105.00000000     105.00000000
         105.00000000     105.00000000     105.00000000     105.00000000     105.00000000     105.00000000     105.00000000     105.00000000
    INTERNAL  FACTOR  1.0
         102.00000000     102.00000000     102.00000000     102.00000000     102.00000000     102.00000000     102.00000000     102.00000000     102.00000000     102.00000000     102.00000000     102.00000000     102.00000000     102.00000000     102.00000000     102.00000000     102.00000000     102.00000000     102.00000000     102.00000000
         102.00000000     102.00000000     102.00000000     102.00000000     102.00000000     102.00000000     102.00000000     102.00000000     102.00000000     102.00000000     102.00000000     102.00000000     102.00000000     102.00000000     102.00000000     102.00000000     102.00000000     102.00000000     102.00000000     102.00000000
         102.00000000     102.00000000     102.00000000     102.00000000     102.00000000     102.00000000     102.00000000     102.00000000     102.00000000     102.00000000     102.00000000     102.00000000     102.00000000     102.00000000     102.00000000     102.00000000     102.00000000     102.00000000     102.00000000     102.00000000
         102.00000000     102.00000000     102.00000000     102.00000000     102.00000000     102.00000000     102.00000000     102.00000000     102.00000000     102.00000000     102.00000000     102.00000000     102.00000000     102.00000000     102.00000000     102.00000000     102.00000000     102.00000000     102.00000000     102.00000000
         102.00000000     102.00000000     102.00000000     102.00000000     102.00000000     102.00000000     102.00000000     102.00000000
    INTERNAL  FACTOR  1.0
          99.00000000      99.00000000      99.00000000      99.00000000      99.00000000      99.00000000      99.00000000      99.00000000      99.00000000      99.00000000      99.00000000      99.00000000      99.00000000      99.00000000      99.00000000      99.00000000      99.00000000      99.00000000      99.00000000      99.00000000