BEGIN griddata
  strt
    CONSTANT 0.0
END griddata

