BEGIN options
  XT3D_OFF
END options

BEGIN griddata
  diffc
    CONSTANT       0.30798000
  alh
    CONSTANT       0.00000000
  ath1
    CONSTANT       0.00000000
END griddata

