BEGIN OPTIONS
  HEAD FILEOUT test1tr.hds
  BUDGET FILEOUT test1tr.cbc
END OPTIONS

BEGIN PERIOD 1
  PRINT BUDGET FREQUENCY 5
  SAVE HEAD FREQUENCY 5
  PRINT HEAD FREQUENCY 5
  SAVE BUDGET FREQUENCY 5
END PERIOD
