# Simulation name file for MODFLOW 6 prepared by MF5to6

BEGIN Options
END Options

BEGIN Timing
  TDIS6  test_fhb.tdis
END Timing

BEGIN Models
  GWF6  test_fhb.nam  test_fhb
END Models

BEGIN Exchanges
END Exchanges

BEGIN SOLUTIONGROUP 1
  MXITER  1
  IMS6  test_fhb.ims  test_fhb
END SOLUTIONGROUP
