# WEL8 input file, prepared by MF5to6 on 3/25/2016 at 17:10:31.

BEGIN Options
  PRINT_INPUT
  PRINT_FLOWS
  TS6 FILEIN  test_fhb.fhb.wel.ts
END Options

BEGIN Dimensions
  MAXBOUND  1
END Dimensions

BEGIN PERIOD 1
  1  2  1  FLOW_L1_R2_C1_1         
END PERIOD
