# IC8 input file, prepared by MF5to6 on 3/25/2016 at 17:10:31.

BEGIN Options
END Options

BEGIN GRIDDATA
  STRT LAYERED
    CONSTANT    0.00000000        Initial head for layer 1
END GRIDDATA
