BEGIN OPTIONS
  BOUNDNAMES
  OBS6 FILEIN test_fhb.drn.obs
END OPTIONS

BEGIN DIMENSIONS
  MAXBOUND  2
END DIMENSIONS

BEGIN PERIOD 1
# l r c  elev  cond   boundname
  1 1 5  4.5   1.0e1  drain_r1
  1 3 5  4.5   1.0e1  drain_r3 
END PERIOD
