# OC8 input file, prepared by MF5to6 on 3/25/2016 at 17:10:31.

BEGIN Options
  HEAD FILEOUT  test_fhb_testfhb.hds
  HEAD PRINT_FORMAT  COLUMNS 20  WIDTH 5  DIGITS 2  FIXED
END Options

BEGIN PERIOD 1
  PRINT HEAD ALL
  PRINT BUDGET ALL
  SAVE HEAD ALL
END PERIOD
