# STO8 input file, prepared by MF5to6 on 3/25/2016 at 17:10:31.

BEGIN Options
  STORAGECOEFFICIENT
END Options

BEGIN GRIDDATA
  ICONVERT LAYERED
    CONSTANT  0
  SS LAYERED
    CONSTANT   0.10000000E-01
  SY LAYERED
    CONSTANT    0.0000000    
END GRIDDATA
