# TDIS8 input file, prepared by MF5to6 on 3/25/2016 at 17:10:31.

BEGIN Options
  TIME_UNITS DAYS
END Options

BEGIN Dimensions
  NPER 3
END Dimensions

BEGIN PERIODDATA
    400.00000              10    1.0000000      Items: PERLEN NSTP TSMULT
    200.00000               4    1.0000000      Items: PERLEN NSTP TSMULT
    400.00000               6    1.1000000      Items: PERLEN NSTP TSMULT
END PERIODDATA
