# Basic package file for MODFLOW, generated by Flopy.
 FREE
CONSTANT          1                                #ibound layer 1                
CONSTANT          1                                #ibound layer 2                
CONSTANT          1                                #ibound layer 3                
CONSTANT          1                                #ibound layer 4                
CONSTANT          1                                #ibound layer 5                
        -999.99
CONSTANT    1.000000E+02                           #strt layer 1                  
CONSTANT    1.000000E+02                           #strt layer 2                  
CONSTANT    1.000000E+02                           #strt layer 3                  
CONSTANT    1.000000E+02                           #strt layer 4                  
CONSTANT    1.000000E+02                           #strt layer 5                  
