# GHB for MODFLOW, generated by Flopy.
         1         0
         1         0 # stress period 0
         1         1         1   9.9000000E+01   1.0000000E+03
