# RCH for MODFLOW, generated by Flopy.
         3         0
         1        -1 # Stress period 1
CONSTANT    1.500000E-04                           #rech_1                        
