# Simulation name file for MODFLOW 6 prepared by MF5to6

BEGIN Options
END Options

BEGIN Timing
  TDIS6  test1ss_ic.tdis
END Timing

BEGIN Models
  GWF6  test1ss_ic.nam  test1ss_ic
END Models

BEGIN Exchanges
END Exchanges

BEGIN SOLUTIONGROUP 1
  MXITER  1
  IMS6  test1ss_ic.ims  test1ss_ic
END SOLUTIONGROUP
