# NPF8 input file, prepared by MF5to6 on 3/25/2016 at 16:26:25.

BEGIN Options
  PERCHED
  VARIABLECV  DEWATERED
END Options

BEGIN GRIDDATA
  Icelltype LAYERED
    CONSTANT  1
  k  LAYERED
    INTERNAL  FACTOR  1.0  IPRN  12
  0.200000000E-02  0.200000000E-02   0.00000000       0.00000000       0.00000000       0.00000000       0.00000000       0.00000000       0.00000000       0.00000000    
  0.400000000E-03  0.200000000E-02  0.200000000E-02   0.00000000       0.00000000      0.400000000E-03  0.400000000E-03  0.400000000E-03   0.00000000       0.00000000    
   0.00000000      0.400000000E-03  0.200000000E-02  0.200000000E-02  0.400000000E-03  0.400000000E-03  0.400000000E-03  0.400000000E-03   0.00000000       0.00000000    
  0.400000000E-03  0.400000000E-03  0.400000000E-03  0.200000000E-02  0.200000000E-02  0.200000000E-02  0.400000000E-03  0.400000000E-03  0.400000000E-03   0.00000000    
  0.400000000E-03  0.400000000E-03  0.400000000E-03  0.200000000E-02  0.200000000E-02  0.200000000E-02  0.200000000E-02  0.200000000E-02  0.200000000E-02  0.200000000E-02
  0.400000000E-03  0.400000000E-03  0.400000000E-03  0.200000000E-02  0.200000000E-02  0.200000000E-02  0.200000000E-02  0.200000000E-02  0.400000000E-03  0.400000000E-03
  0.400000000E-03  0.400000000E-03  0.400000000E-03  0.200000000E-02  0.200000000E-02  0.200000000E-02  0.200000000E-02  0.200000000E-02  0.400000000E-03   0.00000000    
   0.00000000      0.400000000E-03  0.400000000E-03  0.200000000E-02  0.200000000E-02  0.200000000E-02  0.200000000E-02  0.400000000E-03  0.400000000E-03   0.00000000    
   0.00000000      0.400000000E-03  0.400000000E-03  0.200000000E-02  0.200000000E-02  0.200000000E-02  0.200000000E-02  0.400000000E-03  0.400000000E-03   0.00000000    
   0.00000000      0.400000000E-03  0.400000000E-03  0.200000000E-02  0.200000000E-02  0.200000000E-02  0.200000000E-02  0.400000000E-03  0.400000000E-03  0.400000000E-03
   0.00000000      0.400000000E-03  0.400000000E-03  0.200000000E-02  0.200000000E-02  0.200000000E-02  0.200000000E-02  0.400000000E-03  0.400000000E-03   0.00000000    
  0.400000000E-03  0.400000000E-03  0.200000000E-02  0.200000000E-02  0.200000000E-02  0.200000000E-02  0.200000000E-02  0.400000000E-03  0.400000000E-03   0.00000000    
  0.200000000E-02  0.200000000E-02  0.200000000E-02  0.200000000E-02  0.200000000E-02  0.200000000E-02  0.200000000E-02  0.200000000E-02  0.200000000E-02   0.00000000    
   0.00000000      0.400000000E-03  0.400000000E-03  0.400000000E-03  0.400000000E-03  0.400000000E-03  0.400000000E-03  0.400000000E-03  0.200000000E-02   0.00000000    
   0.00000000       0.00000000      0.400000000E-03  0.400000000E-03  0.400000000E-03  0.400000000E-03   0.00000000       0.00000000       0.00000000       0.00000000    
  K33  LAYERED
    INTERNAL  FACTOR  1.0  IPRN  12
  0.200000000E-02  0.200000000E-02   0.00000000       0.00000000       0.00000000       0.00000000       0.00000000       0.00000000       0.00000000       0.00000000    
  0.400000000E-03  0.200000000E-02  0.200000000E-02   0.00000000       0.00000000      0.400000000E-03  0.400000000E-03  0.400000000E-03   0.00000000       0.00000000    
   0.00000000      0.400000000E-03  0.200000000E-02  0.200000000E-02  0.400000000E-03  0.400000000E-03  0.400000000E-03  0.400000000E-03   0.00000000       0.00000000    
  0.400000000E-03  0.400000000E-03  0.400000000E-03  0.200000000E-02  0.200000000E-02  0.200000000E-02  0.400000000E-03  0.400000000E-03  0.400000000E-03   0.00000000    
  0.400000000E-03  0.400000000E-03  0.400000000E-03  0.200000000E-02  0.200000000E-02  0.200000000E-02  0.200000000E-02  0.200000000E-02  0.200000000E-02  0.200000000E-02
  0.400000000E-03  0.400000000E-03  0.400000000E-03  0.200000000E-02  0.200000000E-02  0.200000000E-02  0.200000000E-02  0.200000000E-02  0.400000000E-03  0.400000000E-03
  0.400000000E-03  0.400000000E-03  0.400000000E-03  0.200000000E-02  0.200000000E-02  0.200000000E-02  0.200000000E-02  0.200000000E-02  0.400000000E-03   0.00000000    
   0.00000000      0.400000000E-03  0.400000000E-03  0.200000000E-02  0.200000000E-02  0.200000000E-02  0.200000000E-02  0.400000000E-03  0.400000000E-03   0.00000000    
   0.00000000      0.400000000E-03  0.400000000E-03  0.200000000E-02  0.200000000E-02  0.200000000E-02  0.200000000E-02  0.400000000E-03  0.400000000E-03   0.00000000    
   0.00000000      0.400000000E-03  0.400000000E-03  0.200000000E-02  0.200000000E-02  0.200000000E-02  0.200000000E-02  0.400000000E-03  0.400000000E-03  0.400000000E-03
   0.00000000      0.400000000E-03  0.400000000E-03  0.200000000E-02  0.200000000E-02  0.200000000E-02  0.200000000E-02  0.400000000E-03  0.400000000E-03   0.00000000    
  0.400000000E-03  0.400000000E-03  0.200000000E-02  0.200000000E-02  0.200000000E-02  0.200000000E-02  0.200000000E-02  0.400000000E-03  0.400000000E-03   0.00000000    
  0.200000000E-02  0.200000000E-02  0.200000000E-02  0.200000000E-02  0.200000000E-02  0.200000000E-02  0.200000000E-02  0.200000000E-02  0.200000000E-02   0.00000000    
   0.00000000      0.400000000E-03  0.400000000E-03  0.400000000E-03  0.400000000E-03  0.400000000E-03  0.400000000E-03  0.400000000E-03  0.200000000E-02   0.00000000    
   0.00000000       0.00000000      0.400000000E-03  0.400000000E-03  0.400000000E-03  0.400000000E-03   0.00000000       0.00000000       0.00000000       0.00000000    
END GRIDDATA
