# SFR8 input file, prepared by MF5to6 on 3/25/2016 at 16:26:25.

BEGIN Options
  SAVE_FLOWS
  MAXIMUM_DEPTH_CHANGE   0.10000000E-03
  UNIT_CONVERSION    1.4860000    
  PRINT_STAGE
  PRINT_FLOWS   
END Options

BEGIN Dimensions
  NREACHES  36
END Dimensions

BEGIN PACKAGEDATA
  # rno cellid rlen           rwid            rgrd            rbtp            rbth            rbhk             man     ncon  ustrf ndv
  1 1 1 1   4500.0000       12.000000      0.86767896E-03   1093.0477       3.0000000      0.29999999E-04  0.29999999E-01 1 1.0000 0
  2 1 2 2   7000.0000       12.000000      0.86767896E-03   1088.0586       3.0000000      0.29999999E-04  0.29999999E-01 2 1.0000 0
  3 1 3 3   6000.0000       12.000000      0.86767896E-03   1082.4187       3.0000000      0.29999999E-04  0.29999999E-01 2 1.0000 0
  4 1 3 4   5550.0000       12.000000      0.86767896E-03   1077.4078       3.0000000      0.29999999E-04  0.29999999E-01 3 1.0000 1
  5 1 4 5   6500.0000       12.000000      0.94339624E-03   1071.9340       3.0000000      0.29999999E-04  0.29999999E-01 2 1.0000 0
  6 1 5 6   5000.0000       12.000000      0.94339624E-03   1066.5094       3.0000000      0.29999999E-04  0.29999999E-01 2 1.0000 0
  7 1 6 6   5000.0000       12.000000      0.94339624E-03   1061.7925       3.0000000      0.29999999E-04  0.29999999E-01 2 1.0000 0
  8 1 7 6   5000.0000       12.000000      0.94339624E-03   1057.0754       3.0000000      0.29999999E-04  0.29999999E-01 2 1.0000 0
  9 1 8 6   5000.0000       12.000000      0.94339624E-03   1052.3585       3.0000000      0.29999999E-04  0.29999999E-01 2 1.0000 0
  10 1 3 5   5000.0000       9.6363640      0.54545456E-03   1073.6364       2.0000000      0.29999999E-04  0.29999999E-01 2 0.0000 0
  11 1 3 6   5000.0000       8.9090910      0.54545456E-03   1070.9091       2.0000000      0.29999999E-04  0.29999999E-01 2 1.0000 0
  12 1 3 7   4500.0000       8.2181816      0.54545456E-03   1068.3182       2.0000000      0.29999999E-04  0.29999999E-01 2 1.0000 0
  13 1 4 8   6000.0000       7.4545455      0.54545456E-03   1065.4546       2.0000000      0.29999999E-04  0.29999999E-01 2 1.0000 0
  14 1 5 8   5000.0000       6.6545458      0.54545456E-03   1062.4546       2.0000000      0.29999999E-04  0.29999999E-01 2 1.0000 0
  15 1 6 8   2000.0000       6.1454544      0.54545456E-03   1060.5454       2.0000000      0.29999999E-04  0.29999999E-01 2 1.0000 0
  16 1 5 10   2500.0000       10.000000      0.18181818E-02   1077.7273       3.0000000      0.29999999E-04  0.29999999E-01 1 1.0000 0
  17 1 5 9   5000.0000       10.000000      0.18181818E-02   1070.9091       3.0000000      0.29999999E-04  0.29999999E-01 2 1.0000 0
  18 1 6 8   3500.0000       10.000000      0.18181818E-02   1063.1818       3.0000000      0.29999999E-04  0.29999999E-01 2 1.0000 0
  19 1 6 8   4000.0000       11.000000      0.10000000E-02   1058.0000       3.0000000      0.29999999E-04  0.29999999E-01 3 1.0000 0
  20 1 7 7   5000.0000       11.000000      0.10000000E-02   1053.5000       3.0000000      0.29999999E-04  0.29999999E-01 2 1.0000 0
  21 1 8 7   3500.0000       11.000000      0.10000000E-02   1049.2500       3.0000000      0.29999999E-04  0.29999999E-01 2 1.0000 0
  22 1 8 6   2500.0000       11.000000      0.10000000E-02   1046.2500       3.0000000      0.29999999E-04  0.29999999E-01 2 1.0000 0
  23 1 9 6   5000.0000       12.000000      0.90909092E-03   1042.7273       3.0000000      0.29999999E-04  0.29999999E-01 3 1.0000 0
  24 1 10 7   5000.0000       12.000000      0.90909092E-03   1038.1818       3.0000000      0.29999999E-04  0.29999999E-01 2 1.0000 0
  25 1 11 7   5000.0000       12.000000      0.90909092E-03   1033.6364       3.0000000      0.29999999E-04  0.29999999E-01 2 1.0000 0
  26 1 12 7   5000.0000       12.000000      0.90909092E-03   1029.0909       3.0000000      0.29999999E-04  0.29999999E-01 2 1.0000 0
  27 1 13 7   2000.0000       12.000000      0.90909092E-03   1025.9091       3.0000000      0.29999999E-04  0.29999999E-01 2 1.0000 0
  28 1 14 9   5000.0000       15.000000      0.96774194E-03   1037.5807       3.0000000      0.59999998E-04  0.25000000E-01 1 1.0000 0
  29 1 13 8   5500.0000       15.000000      0.96774194E-03   1032.5000       3.0000000      0.59999998E-04  0.25000000E-01 2 1.0000 0
  30 1 13 7   5000.0000       15.000000      0.96774194E-03   1027.4193       3.0000000      0.59999998E-04  0.25000000E-01 2 1.0000 0
  31 1 13 6   5000.0000       16.000000      0.12500000E-02   1021.8750       3.0000000      0.59999998E-04  0.25000000E-01 3 1.0000 0
  32 1 13 5   5000.0000       16.000000      0.12500000E-02   1015.6250       3.0000000      0.59999998E-04  0.25000000E-01 2 1.0000 0
  33 1 13 4   5000.0000       16.000000      0.12500000E-02   1009.3750       3.0000000      0.59999998E-04  0.25000000E-01 2 1.0000 0
  34 1 13 3   5000.0000       16.000000      0.12500000E-02   1003.1250       3.0000000      0.59999998E-04  0.25000000E-01 2 1.0000 0
  35 1 13 2   5000.0000       16.000000      0.12500000E-02   996.87500       3.0000000      0.59999998E-04  0.25000000E-01 2 1.0000 0
  36 1 13 1   3000.0000       16.000000      0.12500000E-02   991.87500       3.0000000      0.59999998E-04  0.25000000E-01 1 1.0000 0
END PACKAGEDATA

BEGIN CONNECTIONDATA
  1 -2
  2 1 -3
  3 2 -4
  4 3 -5 -10
  5 4 -6
  6 5 -7
  7 6 -8
  8 7 -9
  9 8 -23
  10 -11 4
  11 10 -12
  12 11 -13
  13 12 -14
  14 13 -15
  15 14 -19
  16 -17
  17 16 -18
  18 17 -19
  19 15 18 -20
  20 19 -21
  21 20 -22
  22 21 -23
  23 9 22 -24
  24 23 -25
  25 24 -26
  26 25 -27
  27 26 -31
  28 -29
  29 28 -30
  30 29 -31
  31 27 30 -32
  32 31 -33
  33 32 -34
  34 33 -35
  35 34 -36
  36 35
END CONNECTIONDATA

BEGIN DIVERSIONS
  # rno idv iconr cprior
  4  1  10        UPTO   0
END DIVERSIONS

BEGIN PERIOD 1
   1 inflow   25.000000
   1 rainfall   0.0000000
   1 evaporation   0.0000000
   1 runoff   0.0000000
   2 inflow   0.0000000
   2 rainfall   0.0000000
   2 evaporation   0.0000000
   2 runoff   0.0000000
   3 inflow   0.0000000
   3 rainfall   0.0000000
   3 evaporation   0.0000000
   3 runoff   0.0000000
   4 inflow   0.0000000
   4 rainfall   0.0000000
   4 evaporation   0.0000000
   4 runoff   0.0000000
   4 diversion 1   10.000000
   5 inflow   0.0000000
   5 rainfall   0.0000000
   5 evaporation   0.0000000
   5 runoff   0.0000000
   6 inflow   0.0000000
   6 rainfall   0.0000000
   6 evaporation   0.0000000
   6 runoff   0.0000000
   7 inflow   0.0000000
   7 rainfall   0.0000000
   7 evaporation   0.0000000
   7 runoff   0.0000000
   8 inflow   0.0000000
   8 rainfall   0.0000000
   8 evaporation   0.0000000
   8 runoff   0.0000000
   9 inflow   0.0000000
   9 rainfall   0.0000000
   9 evaporation   0.0000000
   9 runoff   0.0000000
   10 inflow   0.0000000
   10 rainfall   0.0000000
   10 evaporation   0.0000000
   10 runoff   0.0000000
   11 inflow   0.0000000
   11 rainfall   0.0000000
   11 evaporation   0.0000000
   11 runoff   0.0000000
   12 inflow   0.0000000
   12 rainfall   0.0000000
   12 evaporation   0.0000000
   12 runoff   0.0000000
   13 inflow   0.0000000
   13 rainfall   0.0000000
   13 evaporation   0.0000000
   13 runoff   0.0000000
   14 inflow   0.0000000
   14 rainfall   0.0000000
   14 evaporation   0.0000000
   14 runoff   0.0000000
   15 inflow   0.0000000
   15 rainfall   0.0000000
   15 evaporation   0.0000000
   15 runoff   0.0000000
   16 inflow   10.000000
   16 rainfall   0.0000000
   16 evaporation   0.0000000
   16 runoff   0.0000000
   17 inflow   0.0000000
   17 rainfall   0.0000000
   17 evaporation   0.0000000
   17 runoff   0.0000000
   18 inflow   0.0000000
   18 rainfall   0.0000000
   18 evaporation   0.0000000
   18 runoff   0.0000000
   19 inflow   0.0000000
   19 rainfall   0.0000000
   19 evaporation   0.0000000
   19 runoff   0.0000000
   20 inflow   0.0000000
   20 rainfall   0.0000000
   20 evaporation   0.0000000
   20 runoff   0.0000000
   21 inflow   0.0000000
   21 rainfall   0.0000000
   21 evaporation   0.0000000
   21 runoff   0.0000000
   22 inflow   0.0000000
   22 rainfall   0.0000000
   22 evaporation   0.0000000
   22 runoff   0.0000000
   23 inflow   0.0000000
   23 rainfall   0.0000000
   23 evaporation   0.0000000
   23 runoff   0.0000000
   24 inflow   0.0000000
   24 rainfall   0.0000000
   24 evaporation   0.0000000
   24 runoff   0.0000000
   25 inflow   0.0000000
   25 rainfall   0.0000000
   25 evaporation   0.0000000
   25 runoff   0.0000000
   26 inflow   0.0000000
   26 rainfall   0.0000000
   26 evaporation   0.0000000
   26 runoff   0.0000000
   27 inflow   0.0000000
   27 rainfall   0.0000000
   27 evaporation   0.0000000
   27 runoff   0.0000000
   28 inflow   150.00000
   28 rainfall   0.0000000
   28 evaporation   0.0000000
   28 runoff   0.0000000
   29 inflow   0.0000000
   29 rainfall   0.0000000
   29 evaporation   0.0000000
   29 runoff   0.0000000
   30 inflow   0.0000000
   30 rainfall   0.0000000
   30 evaporation   0.0000000
   30 runoff   0.0000000
   31 inflow   0.0000000
   31 rainfall   0.0000000
   31 evaporation   0.0000000
   31 runoff   0.0000000
   32 inflow   0.0000000
   32 rainfall   0.0000000
   32 evaporation   0.0000000
   32 runoff   0.0000000
   33 inflow   0.0000000
   33 rainfall   0.0000000
   33 evaporation   0.0000000
   33 runoff   0.0000000
   34 inflow   0.0000000
   34 rainfall   0.0000000
   34 evaporation   0.0000000
   34 runoff   0.0000000
   35 inflow   0.0000000
   35 rainfall   0.0000000
   35 evaporation   0.0000000
   35 runoff   0.0000000
   36 inflow   0.0000000
   36 rainfall   0.0000000
   36 evaporation   0.0000000
   36 runoff   0.0000000
END PERIOD
