# DIS8 input file, prepared by MF5to6 on 3/25/2016 at 16:26:25.

BEGIN Options
  LENGTH_UNITS  FEET
END Options

BEGIN Dimensions
  NLAY  1
  NROW  15
  NCOL  10
END Dimensions

BEGIN GRIDDATA
  DELR
    CONSTANT    5000.00000        DELR
  DELC
    CONSTANT    5000.00000        DELC
  TOP LAYERED
    INTERNAL  FACTOR    1.00000000      IPRN  3    TOP array
   1105.00000       1105.00000       0.00000000       0.00000000       0.00000000       0.00000000       0.00000000       0.00000000       0.00000000       0.00000000    
   1105.00000       1095.00000       1105.00000       0.00000000       0.00000000       1100.00000       1100.00000       1110.00000       0.00000000       0.00000000    
   0.00000000       1100.00000       1085.00000       1080.00000       1078.00000       1076.00000       1073.00000       1090.00000       0.00000000       0.00000000    
   1110.00000       1100.00000       1090.00000       1085.00000       1076.00000       1080.00000       1080.00000       1070.00000       1100.00000       0.00000000    
   1110.00000       1100.00000       1085.00000       1080.00000       1078.00000       1074.00000       1077.00000       1066.00000       1075.00000       1080.00000    
   1105.00000       1095.00000       1080.00000       1077.00000       1073.00000       1069.00000       1070.00000       1063.00000       1085.00000       1095.00000    
   1105.00000       1090.00000       1075.00000       1072.00000       1070.00000       1065.00000       1065.00000       1069.00000       1090.00000       0.00000000    
   0.00000000       1080.00000       1070.00000       1068.00000       1063.00000       1060.00000       1063.00000       1067.00000       1090.00000       0.00000000    
   0.00000000       1075.00000       1065.00000       1062.00000       1058.00000       1052.00000       1055.00000       1065.00000       1090.00000       0.00000000    
   0.00000000       1070.00000       1060.00000       1055.00000       1046.00000       1046.00000       1044.00000       1060.00000       1088.00000       1100.00000    
   0.00000000       1055.00000       1050.00000       1045.00000       1041.00000       1042.00000       1040.00000       1050.00000       1075.00000       0.00000000    
   1027.00000       1028.00000       1028.00000       1032.00000       1032.00000       1033.00000       1032.00000       1040.00000       1060.00000       0.00000000    
   997.000000       1004.00000       1008.00000       1014.00000       1020.00000       1027.00000       1032.00000       1038.00000       1050.00000       0.00000000    
   0.00000000       1030.00000       1040.00000       1045.00000       1050.00000       1050.00000       1050.00000       1050.00000       1044.00000       0.00000000    
   0.00000000       0.00000000       1080.00000       1080.00000       1080.00000       1080.00000       0.00000000       0.00000000       0.00000000       0.00000000    
  BOTM LAYERED
    INTERNAL  FACTOR    1.00000000      IPRN  3    BOTM layer 1
   1000.00000       1000.00000       0.00000000       0.00000000       0.00000000       0.00000000       0.00000000       0.00000000       0.00000000       0.00000000    
   1000.00000       900.000000       900.000000       0.00000000       0.00000000       1000.00000       1000.00000       1000.00000       0.00000000       0.00000000    
   0.00000000       850.000000       670.000000       680.000000       680.000000       770.000000       770.000000       890.000000       0.00000000       0.00000000    
   950.000000       850.000000       650.000000       650.000000       650.000000       680.000000       740.000000       850.000000       1000.00000       0.00000000    
   950.000000       800.000000       650.000000       600.000000       600.000000       600.000000       650.000000       720.000000       850.000000       950.000000    
   950.000000       800.000000       650.000000       600.000000       550.000000       600.000000       650.000000       720.000000       850.000000       970.000000    
   950.000000       800.000000       650.000000       600.000000       550.000000       600.000000       650.000000       720.000000       950.000000       0.00000000    
   0.00000000       850.000000       700.000000       650.000000       570.000000       600.000000       700.000000       850.000000       950.000000       0.00000000    
   0.00000000       850.000000       700.000000       650.000000       540.000000       580.000000       700.000000       850.000000       950.000000       0.00000000    
   0.00000000       850.000000       700.000000       630.000000       530.000000       580.000000       650.000000       800.000000       900.000000       950.000000    
   0.00000000       850.000000       700.000000       620.000000       580.000000       620.000000       700.000000       800.000000       900.000000       0.00000000    
   900.000000       830.000000       710.000000       640.000000       600.000000       650.000000       700.000000       800.000000       900.000000       0.00000000    
   900.000000       810.000000       750.000000       700.000000       650.000000       700.000000       750.000000       800.000000       900.000000       0.00000000    
   0.00000000       950.000000       850.000000       850.000000       850.000000       850.000000       850.000000       850.000000       850.000000       0.00000000    
   0.00000000       0.00000000       950.000000       950.000000       950.000000       950.000000       0.00000000       0.00000000       0.00000000       0.00000000    
  IDOMAIN LAYERED
    INTERNAL  FACTOR  1  IPRN  5    Idomain layer 1
    1    1    0    0    0    0    0    0    0    0
    1    1    1    0    0    1    1    1    0    0
    0    1    1    1    1    1    1    1    0    0
    1    1    1    1    1    1    1    1    1    0
    1    1    1    1    1    1    1    1    1    1
    1    1    1    1    1    1    1    1    1    1
    1    1    1    1    1    1    1    1    1    0
    0    1    1    1    1    1    1    1    1    0
    0    1    1    1    1    1    1    1    1    0
    0    1    1    1    1    1    1    1    1    1
    0    1    1    1    1    1    1    1    1    0
    1    1    1    1    1    1    1    1    1    0
    1    1    1    1    1    1    1    1    1    0
    0    1    1    1    1    1    1    1    1    0
    0    0    1    1    1    1    0    0    0    0
END GRIDDATA
