# IC8 input file, prepared by MF5to6 on 3/25/2016 at 16:26:25.

BEGIN Options
END Options

BEGIN GRIDDATA
  STRT LAYERED
    INTERNAL  FACTOR    1.00000000      IPRN  0    Initial head for layer 1
   1050.00000       1050.00000       6999.00000       6999.00000       6999.00000       6999.00000       6999.00000       6999.00000       6999.00000       6999.00000    
   1050.00000       1050.00000       1050.00000       6999.00000       6999.00000       1050.00000       1050.00000       1050.00000       6999.00000       6999.00000    
   6999.00000       1050.00000       1050.00000       1050.00000       1050.00000       1050.00000       1050.00000       1050.00000       6999.00000       6999.00000    
   1050.00000       1050.00000       1050.00000       1050.00000       1050.00000       1050.00000       1050.00000       1050.00000       1050.00000       6999.00000    
   1050.00000       1050.00000       1050.00000       1050.00000       1050.00000       1050.00000       1050.00000       1050.00000       1050.00000       1050.00000    
   1050.00000       1050.00000       1050.00000       1050.00000       1050.00000       1050.00000       1050.00000       1050.00000       1050.00000       1050.00000    
   1050.00000       1050.00000       1050.00000       1050.00000       1050.00000       1050.00000       1050.00000       1050.00000       1050.00000       6999.00000    
   6999.00000       1050.00000       1050.00000       1050.00000       1050.00000       1050.00000       1050.00000       1050.00000       1050.00000       6999.00000    
   6999.00000       1050.00000       1050.00000       1050.00000       1050.00000       1050.00000       1050.00000       1050.00000       1050.00000       6999.00000    
   6999.00000       1050.00000       1050.00000       1050.00000       1050.00000       1050.00000       1050.00000       1050.00000       1050.00000       1050.00000    
   6999.00000       1050.00000       1050.00000       1050.00000       1050.00000       1050.00000       1050.00000       1050.00000       1050.00000       6999.00000    
   1050.00000       1050.00000       1050.00000       1050.00000       1050.00000       1050.00000       1050.00000       1050.00000       1050.00000       6999.00000    
   994.000000       999.000000       1050.00000       1050.00000       1050.00000       1050.00000       1050.00000       1050.00000       1050.00000       6999.00000    
   6999.00000       1050.00000       1050.00000       1050.00000       1050.00000       1050.00000       1050.00000       1050.00000       1050.00000       6999.00000    
   6999.00000       6999.00000       1011.00000       1050.00000       1050.00000       1050.00000       6999.00000       6999.00000       6999.00000       6999.00000    
END GRIDDATA
