BEGIN options
  auxiliary  CONCENTRATION
  PRINT_INPUT
  PRINT_FLOWS
END options

BEGIN dimensions
  MAXBOUND  23
END dimensions

BEGIN period  1
  1 1 41       0.98750000     864.00000000       0.00000000
  2 1 42       0.96250000     864.00000000       0.00000000
  2 1 43       0.96250000     864.00000000       0.00000000
  3 1 44       0.93750000     864.00000000       0.00000000
  3 1 45       0.93750000     864.00000000       0.00000000
  4 1 46       0.91250000     864.00000000       0.00000000
  4 1 47       0.91250000     864.00000000       0.00000000
  5 1 48       0.88750000     864.00000000       0.00000000
  5 1 49       0.88750000     864.00000000       0.00000000
  6 1 50       0.86250000     864.00000000       0.00000000
  6 1 51       0.86250000     864.00000000       0.00000000
END period  1

BEGIN period  2
  1 1 41       0.98750000     864.00000000       0.00000000
  2 1 42       0.96250000     864.00000000       0.00000000
  2 1 43       0.96250000     864.00000000       0.00000000
  3 1 44       0.93750000     864.00000000       0.00000000
  3 1 45       0.93750000     864.00000000       0.00000000
  4 1 46       0.91250000     864.00000000       0.00000000
  4 1 47       0.91250000     864.00000000       0.00000000
  5 1 48       0.88750000     864.00000000       0.00000000
  5 1 49       0.88750000     864.00000000       0.00000000
  6 1 50       0.86250000     864.00000000       0.00000000
  6 1 51       0.86250000     864.00000000       0.00000000
END period  2

BEGIN period  3
  1 1 41       0.98750000     864.00000000       0.00000000
  2 1 42       0.96250000     864.00000000       0.00000000
  2 1 43       0.96250000     864.00000000       0.00000000
  3 1 44       0.93750000     864.00000000       0.00000000
  3 1 45       0.93750000     864.00000000       0.00000000
  4 1 46       0.91250000     864.00000000       0.00000000
  4 1 47       0.91250000     864.00000000       0.00000000
  5 1 48       0.88750000     864.00000000       0.00000000
  5 1 49       0.88750000     864.00000000       0.00000000
  6 1 50       0.86250000     864.00000000       0.00000000
  6 1 51       0.86250000     864.00000000       0.00000000
END period  3

BEGIN period  4
  1 1 41       0.98750000     864.00000000       0.00000000
  2 1 42       0.96250000     864.00000000       0.00000000
  2 1 43       0.96250000     864.00000000       0.00000000
  3 1 44       0.93750000     864.00000000       0.00000000
  3 1 45       0.93750000     864.00000000       0.00000000
  4 1 46       0.91250000     864.00000000       0.00000000
  4 1 47       0.91250000     864.00000000       0.00000000
  5 1 48       0.88750000     864.00000000       0.00000000
  5 1 49       0.88750000     864.00000000       0.00000000
  6 1 50       0.86250000     864.00000000       0.00000000
  6 1 51       0.86250000     864.00000000       0.00000000
END period  4

BEGIN period  5
  1 1 41       0.98750000     864.00000000       0.00000000
  2 1 42       0.96250000     864.00000000       0.00000000
  2 1 43       0.96250000     864.00000000       0.00000000
  3 1 44       0.93750000     864.00000000       0.00000000
  3 1 45       0.93750000     864.00000000       0.00000000
  4 1 46       0.91250000     864.00000000       0.00000000
  4 1 47       0.91250000     864.00000000       0.00000000
  5 1 48       0.88750000     864.00000000       0.00000000
  5 1 49       0.88750000     864.00000000       0.00000000
END period  5

BEGIN period  6
  1 1 41       0.98750000     864.00000000       0.00000000
  2 1 42       0.96250000     864.00000000       0.00000000
  2 1 43       0.96250000     864.00000000       0.00000000
  3 1 44       0.93750000     864.00000000       0.00000000
  3 1 45       0.93750000     864.00000000       0.00000000
  4 1 46       0.91250000     864.00000000       0.00000000
  4 1 47       0.91250000     864.00000000       0.00000000
  5 1 48       0.88750000     864.00000000       0.00000000
  5 1 49       0.88750000     864.00000000       0.00000000
END period  6

BEGIN period  7
  1 1 41       0.98750000     864.00000000       0.00000000
  2 1 42       0.96250000     864.00000000       0.00000000
  2 1 43       0.96250000     864.00000000       0.00000000
  3 1 44       0.93750000     864.00000000       0.00000000
  3 1 45       0.93750000     864.00000000       0.00000000
  4 1 46       0.91250000     864.00000000       0.00000000
  4 1 47       0.91250000     864.00000000       0.00000000
  5 1 48       0.88750000     864.00000000       0.00000000
  5 1 49       0.88750000     864.00000000       0.00000000
END period  7

BEGIN period  8
  1 1 41       0.98750000     864.00000000       0.00000000
  2 1 42       0.96250000     864.00000000       0.00000000
  2 1 43       0.96250000     864.00000000       0.00000000
  3 1 44       0.93750000     864.00000000       0.00000000
  3 1 45       0.93750000     864.00000000       0.00000000
  4 1 46       0.91250000     864.00000000       0.00000000
  4 1 47       0.91250000     864.00000000       0.00000000
  5 1 48       0.88750000     864.00000000       0.00000000
  5 1 49       0.88750000     864.00000000       0.00000000
END period  8

BEGIN period  9
  1 1 41       0.98750000     864.00000000       0.00000000
  2 1 42       0.96250000     864.00000000       0.00000000
  2 1 43       0.96250000     864.00000000       0.00000000
  3 1 44       0.93750000     864.00000000       0.00000000
  3 1 45       0.93750000     864.00000000       0.00000000
  4 1 46       0.91250000     864.00000000       0.00000000
  4 1 47       0.91250000     864.00000000       0.00000000
  5 1 48       0.88750000     864.00000000       0.00000000
  5 1 49       0.88750000     864.00000000       0.00000000
END period  9

BEGIN period  10
  1 1 41       0.98750000     864.00000000       0.00000000
  2 1 42       0.96250000     864.00000000       0.00000000
  2 1 43       0.96250000     864.00000000       0.00000000
  3 1 44       0.93750000     864.00000000       0.00000000
  3 1 45       0.93750000     864.00000000       0.00000000
  4 1 46       0.91250000     864.00000000       0.00000000
  4 1 47       0.91250000     864.00000000       0.00000000
  5 1 48       0.88750000     864.00000000       0.00000000
  5 1 49       0.88750000     864.00000000       0.00000000
END period  10

BEGIN period  11
  1 1 41       0.98750000     864.00000000       0.00000000
  2 1 42       0.96250000     864.00000000       0.00000000
  2 1 43       0.96250000     864.00000000       0.00000000
  3 1 44       0.93750000     864.00000000       0.00000000
  3 1 45       0.93750000     864.00000000       0.00000000
  4 1 46       0.91250000     864.00000000       0.00000000
  4 1 47       0.91250000     864.00000000       0.00000000
  5 1 48       0.88750000     864.00000000       0.00000000
  5 1 49       0.88750000     864.00000000       0.00000000
END period  11

BEGIN period  12
  1 1 41       0.98750000     864.00000000       0.00000000
  2 1 42       0.96250000     864.00000000       0.00000000
  2 1 43       0.96250000     864.00000000       0.00000000
  3 1 44       0.93750000     864.00000000       0.00000000
  3 1 45       0.93750000     864.00000000       0.00000000
  4 1 46       0.91250000     864.00000000       0.00000000
  4 1 47       0.91250000     864.00000000       0.00000000
END period  12

BEGIN period  13
  1 1 41       0.98750000     864.00000000       0.00000000
  2 1 42       0.96250000     864.00000000       0.00000000
  2 1 43       0.96250000     864.00000000       0.00000000
  3 1 44       0.93750000     864.00000000       0.00000000
  3 1 45       0.93750000     864.00000000       0.00000000
  4 1 46       0.91250000     864.00000000       0.00000000
  4 1 47       0.91250000     864.00000000       0.00000000
END period  13

BEGIN period  14
  1 1 41       0.98750000     864.00000000       0.00000000
  2 1 42       0.96250000     864.00000000       0.00000000
  2 1 43       0.96250000     864.00000000       0.00000000
  3 1 44       0.93750000     864.00000000       0.00000000
  3 1 45       0.93750000     864.00000000       0.00000000
  4 1 46       0.91250000     864.00000000       0.00000000
  4 1 47       0.91250000     864.00000000       0.00000000
END period  14

BEGIN period  15
  1 1 41       0.98750000     864.00000000       0.00000000
  2 1 42       0.96250000     864.00000000       0.00000000
  2 1 43       0.96250000     864.00000000       0.00000000
  3 1 44       0.93750000     864.00000000       0.00000000
  3 1 45       0.93750000     864.00000000       0.00000000
  4 1 46       0.91250000     864.00000000       0.00000000
  4 1 47       0.91250000     864.00000000       0.00000000
END period  15

BEGIN period  16
  1 1 41       0.98750000     864.00000000       0.00000000
  2 1 42       0.96250000     864.00000000       0.00000000
  2 1 43       0.96250000     864.00000000       0.00000000
  3 1 44       0.93750000     864.00000000       0.00000000
  3 1 45       0.93750000     864.00000000       0.00000000
  4 1 46       0.91250000     864.00000000       0.00000000
  4 1 47       0.91250000     864.00000000       0.00000000
END period  16

BEGIN period  17
  1 1 41       0.98750000     864.00000000       0.00000000
  2 1 42       0.96250000     864.00000000       0.00000000
  2 1 43       0.96250000     864.00000000       0.00000000
  3 1 44       0.93750000     864.00000000       0.00000000
  3 1 45       0.93750000     864.00000000       0.00000000
  4 1 46       0.91250000     864.00000000       0.00000000
  4 1 47       0.91250000     864.00000000       0.00000000
END period  17

BEGIN period  18
  1 1 41       0.98750000     864.00000000       0.00000000
  2 1 42       0.96250000     864.00000000       0.00000000
  2 1 43       0.96250000     864.00000000       0.00000000
  3 1 44       0.93750000     864.00000000       0.00000000
  3 1 45       0.93750000     864.00000000       0.00000000
  4 1 46       0.91250000     864.00000000       0.00000000
  4 1 47       0.91250000     864.00000000       0.00000000
END period  18

BEGIN period  19
  1 1 41       0.98750000     864.00000000       0.00000000
  2 1 42       0.96250000     864.00000000       0.00000000
  2 1 43       0.96250000     864.00000000       0.00000000
  3 1 44       0.93750000     864.00000000       0.00000000
  3 1 45       0.93750000     864.00000000       0.00000000
  4 1 46       0.91250000     864.00000000       0.00000000
  4 1 47       0.91250000     864.00000000       0.00000000
END period  19

BEGIN period  20
  1 1 41       0.98750000     864.00000000       0.00000000
  2 1 42       0.96250000     864.00000000       0.00000000
  2 1 43       0.96250000     864.00000000       0.00000000
  3 1 44       0.93750000     864.00000000       0.00000000
  3 1 45       0.93750000     864.00000000       0.00000000
END period  20

BEGIN period  21
  1 1 41       0.98750000     864.00000000       0.00000000
  2 1 42       0.96250000     864.00000000       0.00000000
  2 1 43       0.96250000     864.00000000       0.00000000
  3 1 44       0.93750000     864.00000000       0.00000000
  3 1 45       0.93750000     864.00000000       0.00000000
END period  21

BEGIN period  22
  1 1 41       0.98750000     864.00000000       0.00000000
  2 1 42       0.96250000     864.00000000       0.00000000
  2 1 43       0.96250000     864.00000000       0.00000000
  3 1 44       0.93750000     864.00000000       0.00000000
  3 1 45       0.93750000     864.00000000       0.00000000
END period  22

BEGIN period  23
  1 1 41       0.98750000     864.00000000       0.00000000
  2 1 42       0.96250000     864.00000000       0.00000000
  2 1 43       0.96250000     864.00000000       0.00000000
  3 1 44       0.93750000     864.00000000       0.00000000
  3 1 45       0.93750000     864.00000000       0.00000000
END period  23

BEGIN period  24
  1 1 41       0.98750000     864.00000000       0.00000000
  2 1 42       0.96250000     864.00000000       0.00000000
  2 1 43       0.96250000     864.00000000       0.00000000
  3 1 44       0.93750000     864.00000000       0.00000000
  3 1 45       0.93750000     864.00000000       0.00000000
END period  24

BEGIN period  25
  1 1 41       0.98750000     864.00000000       0.00000000
  2 1 42       0.96250000     864.00000000       0.00000000
  2 1 43       0.96250000     864.00000000       0.00000000
  3 1 44       0.93750000     864.00000000       0.00000000
  3 1 45       0.93750000     864.00000000       0.00000000
END period  25

BEGIN period  26
  1 1 41       0.98750000     864.00000000       0.00000000
  2 1 42       0.96250000     864.00000000       0.00000000
  2 1 43       0.96250000     864.00000000       0.00000000
  3 1 44       0.93750000     864.00000000       0.00000000
  3 1 45       0.93750000     864.00000000       0.00000000
END period  26

BEGIN period  27
  1 1 41       0.98750000     864.00000000       0.00000000
  2 1 42       0.96250000     864.00000000       0.00000000
  2 1 43       0.96250000     864.00000000       0.00000000
  3 1 44       0.93750000     864.00000000       0.00000000
  3 1 45       0.93750000     864.00000000       0.00000000
END period  27

BEGIN period  28
  1 1 41       0.98750000     864.00000000       0.00000000
  2 1 42       0.96250000     864.00000000       0.00000000
  2 1 43       0.96250000     864.00000000       0.00000000
END period  28

BEGIN period  29
  1 1 41       0.98750000     864.00000000       0.00000000
  2 1 42       0.96250000     864.00000000       0.00000000
  2 1 43       0.96250000     864.00000000       0.00000000
END period  29

BEGIN period  30
  1 1 41       0.98750000     864.00000000       0.00000000
  2 1 42       0.96250000     864.00000000       0.00000000
  2 1 43       0.96250000     864.00000000       0.00000000
END period  30

BEGIN period  31
  1 1 41       0.98750000     864.00000000       0.00000000
  2 1 42       0.96250000     864.00000000       0.00000000
  2 1 43       0.96250000     864.00000000       0.00000000
END period  31

BEGIN period  32
  1 1 41       0.98750000     864.00000000       0.00000000
  2 1 42       0.96250000     864.00000000       0.00000000
  2 1 43       0.96250000     864.00000000       0.00000000
END period  32

BEGIN period  33
  1 1 41       0.98750000     864.00000000       0.00000000
  2 1 42       0.96250000     864.00000000       0.00000000
  2 1 43       0.96250000     864.00000000       0.00000000
END period  33

BEGIN period  34
  1 1 41       0.98750000     864.00000000       0.00000000
  2 1 42       0.96250000     864.00000000       0.00000000
  2 1 43       0.96250000     864.00000000       0.00000000
END period  34

BEGIN period  35
  1 1 41       0.98750000     864.00000000       0.00000000
  2 1 42       0.96250000     864.00000000       0.00000000
  2 1 43       0.96250000     864.00000000       0.00000000
END period  35

BEGIN period  36
  1 1 41       0.98750000     864.00000000       0.00000000
  2 1 42       0.96250000     864.00000000       0.00000000
  2 1 43       0.96250000     864.00000000       0.00000000
END period  36

BEGIN period  37
  1 1 41       0.98750000     864.00000000       0.00000000
  2 1 42       0.96250000     864.00000000       0.00000000
  2 1 43       0.96250000     864.00000000       0.00000000
END period  37

BEGIN period  38
  1 1 41       0.98750000     864.00000000       0.00000000
  2 1 42       0.96250000     864.00000000       0.00000000
  2 1 43       0.96250000     864.00000000       0.00000000
END period  38

BEGIN period  39
  1 1 41       0.98750000     864.00000000       0.00000000
END period  39

BEGIN period  40
  1 1 41       0.98750000     864.00000000       0.00000000
END period  40

BEGIN period  41
  1 1 41       0.98750000     864.00000000       0.00000000
END period  41

BEGIN period  42
  1 1 41       0.98750000     864.00000000       0.00000000
END period  42

BEGIN period  43
  1 1 41       0.98750000     864.00000000       0.00000000
END period  43

BEGIN period  44
  1 1 41       0.98750000     864.00000000       0.00000000
END period  44

BEGIN period  45
  1 1 41       0.98750000     864.00000000       0.00000000
END period  45

BEGIN period  46
  1 1 41       0.98750000     864.00000000       0.00000000
END period  46

BEGIN period  47
  1 1 41       0.98750000     864.00000000       0.00000000
END period  47

BEGIN period  48
  1 1 41       0.98750000     864.00000000       0.00000000
END period  48

BEGIN period  49
  1 1 41       0.98750000     864.00000000       0.00000000
END period  49

BEGIN period  50
  1 1 41       0.98750000     864.00000000       0.00000000
END period  50

BEGIN period  51
  1 1 41       0.98750000     864.00000000       0.00000000
END period  51

BEGIN period  52
  1 1 41       0.98750000     864.00000000       0.00000000
END period  52

BEGIN period  53
  1 1 41       0.98750000     864.00000000       0.00000000
END period  53

BEGIN period  54
  1 1 41       0.98750000     864.00000000       0.00000000
END period  54

BEGIN period  55
  1 1 41       0.98750000     864.00000000       0.00000000
END period  55

BEGIN period  72
  1 1 41       0.98750000     864.00000000       0.00000000
END period  72

BEGIN period  73
  1 1 41       0.98750000     864.00000000       0.00000000
END period  73

BEGIN period  74
  1 1 41       0.98750000     864.00000000       0.00000000
END period  74

BEGIN period  75
  1 1 41       0.98750000     864.00000000       0.00000000
END period  75

BEGIN period  76
  1 1 41       0.98750000     864.00000000       0.00000000
END period  76

BEGIN period  77
  1 1 41       0.98750000     864.00000000       0.00000000
END period  77

BEGIN period  78
  1 1 41       0.98750000     864.00000000       0.00000000
END period  78

BEGIN period  79
  1 1 41       0.98750000     864.00000000       0.00000000
END period  79

BEGIN period  80
  1 1 41       0.98750000     864.00000000       0.00000000
END period  80

BEGIN period  81
  1 1 41       0.98750000     864.00000000       0.00000000
END period  81

BEGIN period  82
  1 1 41       0.98750000     864.00000000       0.00000000
END period  82

BEGIN period  83
  1 1 41       0.98750000     864.00000000       0.00000000
END period  83

BEGIN period  84
  1 1 41       0.98750000     864.00000000       0.00000000
END period  84

BEGIN period  85
  1 1 41       0.98750000     864.00000000       0.00000000
END period  85

BEGIN period  86
  1 1 41       0.98750000     864.00000000       0.00000000
END period  86

BEGIN period  87
  1 1 41       0.98750000     864.00000000       0.00000000
END period  87

BEGIN period  88
  1 1 41       0.98750000     864.00000000       0.00000000
END period  88

BEGIN period  89
  1 1 41       0.98750000     864.00000000       0.00000000
  2 1 42       0.96250000     864.00000000       0.00000000
  2 1 43       0.96250000     864.00000000       0.00000000
END period  89

BEGIN period  90
  1 1 41       0.98750000     864.00000000       0.00000000
  2 1 42       0.96250000     864.00000000       0.00000000
  2 1 43       0.96250000     864.00000000       0.00000000
END period  90

BEGIN period  91
  1 1 41       0.98750000     864.00000000       0.00000000
  2 1 42       0.96250000     864.00000000       0.00000000
  2 1 43       0.96250000     864.00000000       0.00000000
END period  91

BEGIN period  92
  1 1 41       0.98750000     864.00000000       0.00000000
  2 1 42       0.96250000     864.00000000       0.00000000
  2 1 43       0.96250000     864.00000000       0.00000000
END period  92

BEGIN period  93
  1 1 41       0.98750000     864.00000000       0.00000000
  2 1 42       0.96250000     864.00000000       0.00000000
  2 1 43       0.96250000     864.00000000       0.00000000
END period  93

BEGIN period  94
  1 1 41       0.98750000     864.00000000       0.00000000
  2 1 42       0.96250000     864.00000000       0.00000000
  2 1 43       0.96250000     864.00000000       0.00000000
END period  94

BEGIN period  95
  1 1 41       0.98750000     864.00000000       0.00000000
  2 1 42       0.96250000     864.00000000       0.00000000
  2 1 43       0.96250000     864.00000000       0.00000000
END period  95

BEGIN period  96
  1 1 41       0.98750000     864.00000000       0.00000000
  2 1 42       0.96250000     864.00000000       0.00000000
  2 1 43       0.96250000     864.00000000       0.00000000
END period  96

BEGIN period  97
  1 1 41       0.98750000     864.00000000       0.00000000
  2 1 42       0.96250000     864.00000000       0.00000000
  2 1 43       0.96250000     864.00000000       0.00000000
END period  97

BEGIN period  98
  1 1 41       0.98750000     864.00000000       0.00000000
  2 1 42       0.96250000     864.00000000       0.00000000
  2 1 43       0.96250000     864.00000000       0.00000000
END period  98

BEGIN period  99
  1 1 41       0.98750000     864.00000000       0.00000000
  2 1 42       0.96250000     864.00000000       0.00000000
  2 1 43       0.96250000     864.00000000       0.00000000
END period  99

BEGIN period  100
  1 1 41       0.98750000     864.00000000       0.00000000
  2 1 42       0.96250000     864.00000000       0.00000000
  2 1 43       0.96250000     864.00000000       0.00000000
  3 1 44       0.93750000     864.00000000       0.00000000
  3 1 45       0.93750000     864.00000000       0.00000000
END period  100

BEGIN period  101
  1 1 41       0.98750000     864.00000000       0.00000000
  2 1 42       0.96250000     864.00000000       0.00000000
  2 1 43       0.96250000     864.00000000       0.00000000
  3 1 44       0.93750000     864.00000000       0.00000000
  3 1 45       0.93750000     864.00000000       0.00000000
END period  101

BEGIN period  102
  1 1 41       0.98750000     864.00000000       0.00000000
  2 1 42       0.96250000     864.00000000       0.00000000
  2 1 43       0.96250000     864.00000000       0.00000000
  3 1 44       0.93750000     864.00000000       0.00000000
  3 1 45       0.93750000     864.00000000       0.00000000
END period  102

BEGIN period  103
  1 1 41       0.98750000     864.00000000       0.00000000
  2 1 42       0.96250000     864.00000000       0.00000000
  2 1 43       0.96250000     864.00000000       0.00000000
  3 1 44       0.93750000     864.00000000       0.00000000
  3 1 45       0.93750000     864.00000000       0.00000000
END period  103

BEGIN period  104
  1 1 41       0.98750000     864.00000000       0.00000000
  2 1 42       0.96250000     864.00000000       0.00000000
  2 1 43       0.96250000     864.00000000       0.00000000
  3 1 44       0.93750000     864.00000000       0.00000000
  3 1 45       0.93750000     864.00000000       0.00000000
END period  104

BEGIN period  105
  1 1 41       0.98750000     864.00000000       0.00000000
  2 1 42       0.96250000     864.00000000       0.00000000
  2 1 43       0.96250000     864.00000000       0.00000000
  3 1 44       0.93750000     864.00000000       0.00000000
  3 1 45       0.93750000     864.00000000       0.00000000
END period  105

BEGIN period  106
  1 1 41       0.98750000     864.00000000       0.00000000
  2 1 42       0.96250000     864.00000000       0.00000000
  2 1 43       0.96250000     864.00000000       0.00000000
  3 1 44       0.93750000     864.00000000       0.00000000
  3 1 45       0.93750000     864.00000000       0.00000000
END period  106

BEGIN period  107
  1 1 41       0.98750000     864.00000000       0.00000000
  2 1 42       0.96250000     864.00000000       0.00000000
  2 1 43       0.96250000     864.00000000       0.00000000
  3 1 44       0.93750000     864.00000000       0.00000000
  3 1 45       0.93750000     864.00000000       0.00000000
END period  107

BEGIN period  108
  1 1 41       0.98750000     864.00000000       0.00000000
  2 1 42       0.96250000     864.00000000       0.00000000
  2 1 43       0.96250000     864.00000000       0.00000000
  3 1 44       0.93750000     864.00000000       0.00000000
  3 1 45       0.93750000     864.00000000       0.00000000
  4 1 46       0.91250000     864.00000000       0.00000000
  4 1 47       0.91250000     864.00000000       0.00000000
END period  108

BEGIN period  109
  1 1 41       0.98750000     864.00000000       0.00000000
  2 1 42       0.96250000     864.00000000       0.00000000
  2 1 43       0.96250000     864.00000000       0.00000000
  3 1 44       0.93750000     864.00000000       0.00000000
  3 1 45       0.93750000     864.00000000       0.00000000
  4 1 46       0.91250000     864.00000000       0.00000000
  4 1 47       0.91250000     864.00000000       0.00000000
END period  109

BEGIN period  110
  1 1 41       0.98750000     864.00000000       0.00000000
  2 1 42       0.96250000     864.00000000       0.00000000
  2 1 43       0.96250000     864.00000000       0.00000000
  3 1 44       0.93750000     864.00000000       0.00000000
  3 1 45       0.93750000     864.00000000       0.00000000
  4 1 46       0.91250000     864.00000000       0.00000000
  4 1 47       0.91250000     864.00000000       0.00000000
END period  110

BEGIN period  111
  1 1 41       0.98750000     864.00000000       0.00000000
  2 1 42       0.96250000     864.00000000       0.00000000
  2 1 43       0.96250000     864.00000000       0.00000000
  3 1 44       0.93750000     864.00000000       0.00000000
  3 1 45       0.93750000     864.00000000       0.00000000
  4 1 46       0.91250000     864.00000000       0.00000000
  4 1 47       0.91250000     864.00000000       0.00000000
END period  111

BEGIN period  112
  1 1 41       0.98750000     864.00000000       0.00000000
  2 1 42       0.96250000     864.00000000       0.00000000
  2 1 43       0.96250000     864.00000000       0.00000000
  3 1 44       0.93750000     864.00000000       0.00000000
  3 1 45       0.93750000     864.00000000       0.00000000
  4 1 46       0.91250000     864.00000000       0.00000000
  4 1 47       0.91250000     864.00000000       0.00000000
END period  112

BEGIN period  113
  1 1 41       0.98750000     864.00000000       0.00000000
  2 1 42       0.96250000     864.00000000       0.00000000
  2 1 43       0.96250000     864.00000000       0.00000000
  3 1 44       0.93750000     864.00000000       0.00000000
  3 1 45       0.93750000     864.00000000       0.00000000
  4 1 46       0.91250000     864.00000000       0.00000000
  4 1 47       0.91250000     864.00000000       0.00000000
END period  113

BEGIN period  114
  1 1 41       0.98750000     864.00000000       0.00000000
  2 1 42       0.96250000     864.00000000       0.00000000
  2 1 43       0.96250000     864.00000000       0.00000000
  3 1 44       0.93750000     864.00000000       0.00000000
  3 1 45       0.93750000     864.00000000       0.00000000
  4 1 46       0.91250000     864.00000000       0.00000000
  4 1 47       0.91250000     864.00000000       0.00000000
END period  114

BEGIN period  115
  1 1 41       0.98750000     864.00000000       0.00000000
  2 1 42       0.96250000     864.00000000       0.00000000
  2 1 43       0.96250000     864.00000000       0.00000000
  3 1 44       0.93750000     864.00000000       0.00000000
  3 1 45       0.93750000     864.00000000       0.00000000
  4 1 46       0.91250000     864.00000000       0.00000000
  4 1 47       0.91250000     864.00000000       0.00000000
END period  115

BEGIN period  116
  1 1 41       0.98750000     864.00000000       0.00000000
  2 1 42       0.96250000     864.00000000       0.00000000
  2 1 43       0.96250000     864.00000000       0.00000000
  3 1 44       0.93750000     864.00000000       0.00000000
  3 1 45       0.93750000     864.00000000       0.00000000
  4 1 46       0.91250000     864.00000000       0.00000000
  4 1 47       0.91250000     864.00000000       0.00000000
  5 1 48       0.88750000     864.00000000       0.00000000
  5 1 49       0.88750000     864.00000000       0.00000000
END period  116

BEGIN period  117
  1 1 41       0.98750000     864.00000000       0.00000000
  2 1 42       0.96250000     864.00000000       0.00000000
  2 1 43       0.96250000     864.00000000       0.00000000
  3 1 44       0.93750000     864.00000000       0.00000000
  3 1 45       0.93750000     864.00000000       0.00000000
  4 1 46       0.91250000     864.00000000       0.00000000
  4 1 47       0.91250000     864.00000000       0.00000000
  5 1 48       0.88750000     864.00000000       0.00000000
  5 1 49       0.88750000     864.00000000       0.00000000
END period  117

BEGIN period  118
  1 1 41       0.98750000     864.00000000       0.00000000
  2 1 42       0.96250000     864.00000000       0.00000000
  2 1 43       0.96250000     864.00000000       0.00000000
  3 1 44       0.93750000     864.00000000       0.00000000
  3 1 45       0.93750000     864.00000000       0.00000000
  4 1 46       0.91250000     864.00000000       0.00000000
  4 1 47       0.91250000     864.00000000       0.00000000
  5 1 48       0.88750000     864.00000000       0.00000000
  5 1 49       0.88750000     864.00000000       0.00000000
END period  118

BEGIN period  119
  1 1 41       0.98750000     864.00000000       0.00000000
  2 1 42       0.96250000     864.00000000       0.00000000
  2 1 43       0.96250000     864.00000000       0.00000000
  3 1 44       0.93750000     864.00000000       0.00000000
  3 1 45       0.93750000     864.00000000       0.00000000
  4 1 46       0.91250000     864.00000000       0.00000000
  4 1 47       0.91250000     864.00000000       0.00000000
  5 1 48       0.88750000     864.00000000       0.00000000
  5 1 49       0.88750000     864.00000000       0.00000000
END period  119

BEGIN period  120
  1 1 41       0.98750000     864.00000000       0.00000000
  2 1 42       0.96250000     864.00000000       0.00000000
  2 1 43       0.96250000     864.00000000       0.00000000
  3 1 44       0.93750000     864.00000000       0.00000000
  3 1 45       0.93750000     864.00000000       0.00000000