BEGIN options
END options

BEGIN griddata
  iconvert
    CONSTANT  1
  ss
    CONSTANT  1.00000000E-05
  sy
    CONSTANT       0.35000000
END griddata

BEGIN period  1
  TRANSIENT
END period  1

