BEGIN options
  auxiliary  CONCENTRATION  DENSITY
  PRINT_INPUT
  PRINT_FLOWS
END options

BEGIN dimensions
  MAXBOUND  40
END dimensions

BEGIN period  1
  7 1 52       0.85000000     864.00000000      35.00000000    1024.50000000
  7 1 53       0.85000000     864.00000000      35.00000000    1024.50000000
  8 1 54       0.85000000     864.00000000      35.00000000    1024.50000000
  8 1 55       0.85000000     864.00000000      35.00000000    1024.50000000
  9 1 56       0.85000000     864.00000000      35.00000000    1024.50000000
  9 1 57       0.85000000     864.00000000      35.00000000    1024.50000000
  10 1 58       0.85000000     864.00000000      35.00000000    1024.50000000
  10 1 59       0.85000000     864.00000000      35.00000000    1024.50000000
  11 1 60       0.85000000     864.00000000      35.00000000    1024.50000000
  11 1 61       0.85000000     864.00000000      35.00000000    1024.50000000
  12 1 62       0.85000000     864.00000000      35.00000000    1024.50000000
  12 1 63       0.85000000     864.00000000      35.00000000    1024.50000000
  13 1 64       0.85000000     864.00000000      35.00000000    1024.50000000
  13 1 65       0.85000000     864.00000000      35.00000000    1024.50000000
  14 1 66       0.85000000     864.00000000      35.00000000    1024.50000000
  14 1 67       0.85000000     864.00000000      35.00000000    1024.50000000
  15 1 68       0.85000000     864.00000000      35.00000000    1024.50000000
  15 1 69       0.85000000     864.00000000      35.00000000    1024.50000000
  16 1 70       0.85000000     864.00000000      35.00000000    1024.50000000
  16 1 71       0.85000000     864.00000000      35.00000000    1024.50000000
  17 1 72       0.85000000     864.00000000      35.00000000    1024.50000000
  17 1 73       0.85000000     864.00000000      35.00000000    1024.50000000
  18 1 74       0.85000000     864.00000000      35.00000000    1024.50000000
  18 1 75       0.85000000     864.00000000      35.00000000    1024.50000000
  19 1 76       0.85000000     864.00000000      35.00000000    1024.50000000
  19 1 77       0.85000000     864.00000000      35.00000000    1024.50000000
  20 1 78       0.85000000     864.00000000      35.00000000    1024.50000000
  20 1 79       0.85000000     864.00000000      35.00000000    1024.50000000
  21 1 80       0.85000000     864.00000000      35.00000000    1024.50000000
END period  1

BEGIN period  2
  7 1 52       0.85351821     864.00000000      35.00000000    1024.50000000
  7 1 53       0.85351821     864.00000000      35.00000000    1024.50000000
  8 1 54       0.85351821     864.00000000      35.00000000    1024.50000000
  8 1 55       0.85351821     864.00000000      35.00000000    1024.50000000
  9 1 56       0.85351821     864.00000000      35.00000000    1024.50000000
  9 1 57       0.85351821     864.00000000      35.00000000    1024.50000000
  10 1 58       0.85351821     864.00000000      35.00000000    1024.50000000
  10 1 59       0.85351821     864.00000000      35.00000000    1024.50000000
  11 1 60       0.85351821     864.00000000      35.00000000    1024.50000000
  11 1 61       0.85351821     864.00000000      35.00000000    1024.50000000
  12 1 62       0.85351821     864.00000000      35.00000000    1024.50000000
  12 1 63       0.85351821     864.00000000      35.00000000    1024.50000000
  13 1 64       0.85351821     864.00000000      35.00000000    1024.50000000
  13 1 65       0.85351821     864.00000000      35.00000000    1024.50000000
  14 1 66       0.85351821     864.00000000      35.00000000    1024.50000000
  14 1 67       0.85351821     864.00000000      35.00000000    1024.50000000
  15 1 68       0.85351821     864.00000000      35.00000000    1024.50000000
  15 1 69       0.85351821     864.00000000      35.00000000    1024.50000000
  16 1 70       0.85351821     864.00000000      35.00000000    1024.50000000
  16 1 71       0.85351821     864.00000000      35.00000000    1024.50000000
  17 1 72       0.85351821     864.00000000      35.00000000    1024.50000000
  17 1 73       0.85351821     864.00000000      35.00000000    1024.50000000
  18 1 74       0.85351821     864.00000000      35.00000000    1024.50000000
  18 1 75       0.85351821     864.00000000      35.00000000    1024.50000000
  19 1 76       0.85351821     864.00000000      35.00000000    1024.50000000
  19 1 77       0.85351821     864.00000000      35.00000000    1024.50000000
  20 1 78       0.85351821     864.00000000      35.00000000    1024.50000000
  20 1 79       0.85351821     864.00000000      35.00000000    1024.50000000
  21 1 80       0.85351821     864.00000000      35.00000000    1024.50000000
END period  2

BEGIN period  3
  7 1 52       0.85703420     864.00000000      35.00000000    1024.50000000
  7 1 53       0.85703420     864.00000000      35.00000000    1024.50000000
  8 1 54       0.85703420     864.00000000      35.00000000    1024.50000000
  8 1 55       0.85703420     864.00000000      35.00000000    1024.50000000
  9 1 56       0.85703420     864.00000000      35.00000000    1024.50000000
  9 1 57       0.85703420     864.00000000      35.00000000    1024.50000000
  10 1 58       0.85703420     864.00000000      35.00000000    1024.50000000
  10 1 59       0.85703420     864.00000000      35.00000000    1024.50000000
  11 1 60       0.85703420     864.00000000      35.00000000    1024.50000000
  11 1 61       0.85703420     864.00000000      35.00000000    1024.50000000
  12 1 62       0.85703420     864.00000000      35.00000000    1024.50000000
  12 1 63       0.85703420     864.00000000      35.00000000    1024.50000000
  13 1 64       0.85703420     864.00000000      35.00000000    1024.50000000
  13 1 65       0.85703420     864.00000000      35.00000000    1024.50000000
  14 1 66       0.85703420     864.00000000      35.00000000    1024.50000000
  14 1 67       0.85703420     864.00000000      35.00000000    1024.50000000
  15 1 68       0.85703420     864.00000000      35.00000000    1024.50000000
  15 1 69       0.85703420     864.00000000      35.00000000    1024.50000000
  16 1 70       0.85703420     864.00000000      35.00000000    1024.50000000
  16 1 71       0.85703420     864.00000000      35.00000000    1024.50000000
  17 1 72       0.85703420     864.00000000      35.00000000    1024.50000000
  17 1 73       0.85703420     864.00000000      35.00000000    1024.50000000
  18 1 74       0.85703420     864.00000000      35.00000000    1024.50000000
  18 1 75       0.85703420     864.00000000      35.00000000    1024.50000000
  19 1 76       0.85703420     864.00000000      35.00000000    1024.50000000
  19 1 77       0.85703420     864.00000000      35.00000000    1024.50000000
  20 1 78       0.85703420     864.00000000      35.00000000    1024.50000000
  20 1 79       0.85703420     864.00000000      35.00000000    1024.50000000
  21 1 80       0.85703420     864.00000000      35.00000000    1024.50000000
END period  3

BEGIN period  4
  7 1 52       0.86054575     864.00000000      35.00000000    1024.50000000
  7 1 53       0.86054575     864.00000000      35.00000000    1024.50000000
  8 1 54       0.86054575     864.00000000      35.00000000    1024.50000000
  8 1 55       0.86054575     864.00000000      35.00000000    1024.50000000
  9 1 56       0.86054575     864.00000000      35.00000000    1024.50000000
  9 1 57       0.86054575     864.00000000      35.00000000    1024.50000000
  10 1 58       0.86054575     864.00000000      35.00000000    1024.50000000
  10 1 59       0.86054575     864.00000000      35.00000000    1024.50000000
  11 1 60       0.86054575     864.00000000      35.00000000    1024.50000000
  11 1 61       0.86054575     864.00000000      35.00000000    1024.50000000
  12 1 62       0.86054575     864.00000000      35.00000000    1024.50000000
  12 1 63       0.86054575     864.00000000      35.00000000    1024.50000000
  13 1 64       0.86054575     864.00000000      35.00000000    1024.50000000
  13 1 65       0.86054575     864.00000000      35.00000000    1024.50000000
  14 1 66       0.86054575     864.00000000      35.00000000    1024.50000000
  14 1 67       0.86054575     864.00000000      35.00000000    1024.50000000
  15 1 68       0.86054575     864.00000000      35.00000000    1024.50000000
  15 1 69       0.86054575     864.00000000      35.00000000    1024.50000000
  16 1 70       0.86054575     864.00000000      35.00000000    1024.50000000
  16 1 71       0.86054575     864.00000000      35.00000000    1024.50000000
  17 1 72       0.86054575     864.00000000      35.00000000    1024.50000000
  17 1 73       0.86054575     864.00000000      35.00000000    1024.50000000
  18 1 74       0.86054575     864.00000000      35.00000000    1024.50000000
  18 1 75       0.86054575     864.00000000      35.00000000    1024.50000000
  19 1 76       0.86054575     864.00000000      35.00000000    1024.50000000
  19 1 77       0.86054575     864.00000000      35.00000000    1024.50000000
  20 1 78       0.86054575     864.00000000      35.00000000    1024.50000000
  20 1 79       0.86054575     864.00000000      35.00000000    1024.50000000
  21 1 80       0.86054575     864.00000000      35.00000000    1024.50000000
END period  4

BEGIN period  5
  6 1 50       0.86405064     864.00000000      35.00000000    1024.50000000
  6 1 51       0.86405064     864.00000000      35.00000000    1024.50000000
  7 1 52       0.86405064     864.00000000      35.00000000    1024.50000000
  7 1 53       0.86405064     864.00000000      35.00000000    1024.50000000
  8 1 54       0.86405064     864.00000000      35.00000000    1024.50000000
  8 1 55       0.86405064     864.00000000      35.00000000    1024.50000000
  9 1 56       0.86405064     864.00000000      35.00000000    1024.50000000
  9 1 57       0.86405064     864.00000000      35.00000000    1024.50000000
  10 1 58       0.86405064     864.00000000      35.00000000    1024.50000000
  10 1 59       0.86405064     864.00000000      35.00000000    1024.50000000
  11 1 60       0.86405064     864.00000000      35.00000000    1024.50000000
  11 1 61       0.86405064     864.00000000      35.00000000    1024.50000000
  12 1 62       0.86405064     864.00000000      35.00000000    1024.50000000
  12 1 63       0.86405064     864.00000000      35.00000000    1024.50000000
  13 1 64       0.86405064     864.00000000      35.00000000    1024.50000000
  13 1 65       0.86405064     864.00000000      35.00000000    1024.50000000
  14 1 66       0.86405064     864.00000000      35.00000000    1024.50000000
  14 1 67       0.86405064     864.00000000      35.00000000    1024.50000000
  15 1 68       0.86405064     864.00000000      35.00000000    1024.50000000
  15 1 69       0.86405064     864.00000000      35.00000000    1024.50000000
  16 1 70       0.86405064     864.00000000      35.00000000    1024.50000000
  16 1 71       0.86405064     864.00000000      35.00000000    1024.50000000
  17 1 72       0.86405064     864.00000000      35.00000000    1024.50000000
  17 1 73       0.86405064     864.00000000      35.00000000    1024.50000000
  18 1 74       0.86405064     864.00000000      35.00000000    1024.50000000
  18 1 75       0.86405064     864.00000000      35.00000000    1024.50000000
  19 1 76       0.86405064     864.00000000      35.00000000    1024.50000000
  19 1 77       0.86405064     864.00000000      35.00000000    1024.50000000
  20 1 78       0.86405064     864.00000000      35.00000000    1024.50000000
  20 1 79       0.86405064     864.00000000      35.00000000    1024.50000000
  21 1 80       0.86405064     864.00000000      35.00000000    1024.50000000
END period  5

BEGIN period  6
  6 1 50       0.86754665     864.00000000      35.00000000    1024.50000000
  6 1 51       0.86754665     864.00000000      35.00000000    1024.50000000
  7 1 52       0.86754665     864.00000000      35.00000000    1024.50000000
  7 1 53       0.86754665     864.00000000      35.00000000    1024.50000000
  8 1 54       0.86754665     864.00000000      35.00000000    1024.50000000
  8 1 55       0.86754665     864.00000000      35.00000000    1024.50000000
  9 1 56       0.86754665     864.00000000      35.00000000    1024.50000000
  9 1 57       0.86754665     864.00000000      35.00000000    1024.50000000
  10 1 58       0.86754665     864.00000000      35.00000000    1024.50000000
  10 1 59       0.86754665     864.00000000      35.00000000    1024.50000000
  11 1 60       0.86754665     864.00000000      35.00000000    1024.50000000
  11 1 61       0.86754665     864.00000000      35.00000000    1024.50000000
  12 1 62       0.86754665     864.00000000      35.00000000    1024.50000000
  12 1 63       0.86754665     864.00000000      35.00000000    1024.50000000
  13 1 64       0.86754665     864.00000000      35.00000000    1024.50000000
  13 1 65       0.86754665     864.00000000      35.00000000    1024.50000000
  14 1 66       0.86754665     864.00000000      35.00000000    1024.50000000
  14 1 67       0.86754665     864.00000000      35.00000000    1024.50000000
  15 1 68       0.86754665     864.00000000      35.00000000    1024.50000000
  15 1 69       0.86754665     864.00000000      35.00000000    1024.50000000
  16 1 70       0.86754665     864.00000000      35.00000000    1024.50000000
  16 1 71       0.86754665     864.00000000      35.00000000    1024.50000000
  17 1 72       0.86754665     864.00000000      35.00000000    1024.50000000
  17 1 73       0.86754665     864.00000000      35.00000000    1024.50000000
  18 1 74       0.86754665     864.00000000      35.00000000    1024.50000000
  18 1 75       0.86754665     864.00000000      35.00000000    1024.50000000
  19 1 76       0.86754665     864.00000000      35.00000000    1024.50000000
  19 1 77       0.86754665     864.00000000      35.00000000    1024.50000000
  20 1 78       0.86754665     864.00000000      35.00000000    1024.50000000
  20 1 79       0.86754665     864.00000000      35.00000000    1024.50000000
  21 1 80       0.86754665     864.00000000      35.00000000    1024.50000000
END period  6

BEGIN period  7
  6 1 50       0.87103158     864.00000000      35.00000000    1024.50000000
  6 1 51       0.87103158     864.00000000      35.00000000    1024.50000000
  7 1 52       0.87103158     864.00000000      35.00000000    1024.50000000
  7 1 53       0.87103158     864.00000000      35.00000000    1024.50000000
  8 1 54       0.87103158     864.00000000      35.00000000    1024.50000000
  8 1 55       0.87103158     864.00000000      35.00000000    1024.50000000
  9 1 56       0.87103158     864.00000000      35.00000000    1024.50000000
  9 1 57       0.87103158     864.00000000      35.00000000    1024.50000000
  10 1 58       0.87103158     864.00000000      35.00000000    1024.50000000
  10 1 59       0.87103158     864.00000000      35.00000000    1024.50000000
  11 1 60       0.87103158     864.00000000      35.00000000    1024.50000000
  11 1 61       0.87103158     864.00000000      35.00000000    1024.50000000
  12 1 62       0.87103158     864.00000000      35.00000000    1024.50000000
  12 1 63       0.87103158     864.00000000      35.00000000    1024.50000000
  13 1 64       0.87103158     864.00000000      35.00000000    1024.50000000
  13 1 65       0.87103158     864.00000000      35.00000000    1024.50000000
  14 1 66       0.87103158     864.00000000      35.00000000    1024.50000000
  14 1 67       0.87103158     864.00000000      35.00000000    1024.50000000
  15 1 68       0.87103158     864.00000000      35.00000000    1024.50000000
  15 1 69       0.87103158     864.00000000      35.00000000    1024.50000000
  16 1 70       0.87103158     864.00000000      35.00000000    1024.50000000
  16 1 71       0.87103158     864.00000000      35.00000000    1024.50000000
  17 1 72       0.87103158     864.00000000      35.00000000    1024.50000000
  17 1 73       0.87103158     864.00000000      35.00000000    1024.50000000
  18 1 74       0.87103158     864.00000000      35.00000000    1024.50000000
  18 1 75       0.87103158     864.00000000      35.00000000    1024.50000000
  19 1 76       0.87103158     864.00000000      35.00000000    1024.50000000
  19 1 77       0.87103158     864.00000000      35.00000000    1024.50000000
  20 1 78       0.87103158     864.00000000      35.00000000    1024.50000000
  20 1 79       0.87103158     864.00000000      35.00000000    1024.50000000
  21 1 80       0.87103158     864.00000000      35.00000000    1024.50000000
END period  7

BEGIN period  8
  6 1 50       0.87450323     864.00000000      35.00000000    1024.50000000
  6 1 51       0.87450323     864.00000000      35.00000000    1024.50000000
  7 1 52       0.87450323     864.00000000      35.00000000    1024.50000000
  7 1 53       0.87450323     864.00000000      35.00000000    1024.50000000
  8 1 54       0.87450323     864.00000000      35.00000000    1024.50000000
  8 1 55       0.87450323     864.00000000      35.00000000    1024.50000000
  9 1 56       0.87450323     864.00000000      35.00000000    1024.50000000
  9 1 57       0.87450323     864.00000000      35.00000000    1024.50000000
  10 1 58       0.87450323     864.00000000      35.00000000    1024.50000000
  10 1 59       0.87450323     864.00000000      35.00000000    1024.50000000
  11 1 60       0.87450323     864.00000000      35.00000000    1024.50000000
  11 1 61       0.87450323     864.00000000      35.00000000    1024.50000000
  12 1 62       0.87450323     864.00000000      35.00000000    1024.50000000
  12 1 63       0.87450323     864.00000000      35.00000000    1024.50000000
  13 1 64       0.87450323     864.00000000      35.00000000    1024.50000000
  13 1 65       0.87450323     864.00000000      35.00000000    1024.50000000
  14 1 66       0.87450323     864.00000000      35.00000000    1024.50000000
  14 1 67       0.87450323     864.00000000      35.00000000    1024.50000000
  15 1 68       0.87450323     864.00000000      35.00000000    1024.50000000
  15 1 69       0.87450323     864.00000000      35.00000000    1024.50000000
  16 1 70       0.87450323     864.00000000      35.00000000    1024.50000000
  16 1 71       0.87450323     864.00000000      35.00000000    1024.50000000
  17 1 72       0.87450323     864.00000000      35.00000000    1024.50000000
  17 1 73       0.87450323     864.00000000      35.00000000    1024.50000000
  18 1 74       0.87450323     864.00000000      35.00000000    1024.50000000
  18 1 75       0.87450323     864.00000000      35.00000000    1024.50000000
  19 1 76       0.87450323     864.00000000      35.00000000    1024.50000000
  19 1 77       0.87450323     864.00000000      35.00000000    1024.50000000
  20 1 78       0.87450323     864.00000000      35.00000000    1024.50000000
  20 1 79       0.87450323     864.00000000      35.00000000    1024.50000000
  21 1 80       0.87450323     864.00000000      35.00000000    1024.50000000
END period  8

BEGIN period  9
  6 1 50       0.87795940     864.00000000      35.00000000    1024.50000000
  6 1 51       0.87795940     864.00000000      35.00000000    1024.50000000
  7 1 52       0.87795940     864.00000000      35.00000000    1024.50000000
  7 1 53       0.87795940     864.00000000      35.00000000    1024.50000000
  8 1 54       0.87795940     864.00000000      35.00000000    1024.50000000
  8 1 55       0.87795940     864.00000000      35.00000000    1024.50000000
  9 1 56       0.87795940     864.00000000      35.00000000    1024.50000000
  9 1 57       0.87795940     864.00000000      35.00000000    1024.50000000
  10 1 58       0.87795940     864.00000000      35.00000000    1024.50000000
  10 1 59       0.87795940     864.00000000      35.00000000    1024.50000000
  11 1 60       0.87795940     864.00000000      35.00000000    1024.50000000
  11 1 61       0.87795940     864.00000000      35.00000000    1024.50000000
  12 1 62       0.87795940     864.00000000      35.00000000    1024.50000000
  12 1 63       0.87795940     864.00000000      35.00000000    1024.50000000
  13 1 64       0.87795940     864.00000000      35.00000000    1024.50000000
  13 1 65       0.87795940     864.00000000      35.00000000    1024.50000000
  14 1 66       0.87795940     864.00000000      35.00000000    1024.50000000
  14 1 67       0.87795940     864.00000000      35.00000000    1024.50000000
  15 1 68       0.87795940     864.00000000      35.00000000    1024.50000000
  15 1 69       0.87795940     864.00000000      35.00000000    1024.50000000
  16 1 70       0.87795940     864.00000000      35.00000000    1024.50000000
  16 1 71       0.87795940     864.00000000      35.00000000    1024.50000000
  17 1 72       0.87795940     864.00000000      35.00000000    1024.50000000
  17 1 73       0.87795940     864.00000000      35.00000000    1024.50000000
  18 1 74       0.87795940     864.00000000      35.00000000    1024.50000000
  18 1 75       0.87795940     864.00000000      35.00000000    1024.50000000
  19 1 76       0.87795940     864.00000000      35.00000000    1024.50000000
  19 1 77       0.87795940     864.00000000      35.00000000    1024.50000000
  20 1 78       0.87795940     864.00000000      35.00000000    1024.50000000
  20 1 79       0.87795940     864.00000000      35.00000000    1024.50000000
  21 1 80       0.87795940     864.00000000      35.00000000    1024.50000000
END period  9

BEGIN period  10
  6 1 50       0.88139791     864.00000000      35.00000000    1024.50000000
  6 1 51       0.88139791     864.00000000      35.00000000    1024.50000000
  7 1 52       0.88139791     864.00000000      35.00000000    1024.50000000
  7 1 53       0.88139791     864.00000000      35.00000000    1024.50000000
  8 1 54       0.88139791     864.00000000      35.00000000    1024.50000000
  8 1 55       0.88139791     864.00000000      35.00000000    1024.50000000
  9 1 56       0.88139791     864.00000000      35.00000000    1024.50000000
  9 1 57       0.88139791     864.00000000      35.00000000    1024.50000000
  10 1 58       0.88139791     864.00000000      35.00000000    1024.50000000
  10 1 59       0.88139791     864.00000000      35.00000000    1024.50000000
  11 1 60       0.88139791     864.00000000      35.00000000    1024.50000000
  11 1 61       0.88139791     864.00000000      35.00000000    1024.50000000
  12 1 62       0.88139791     864.00000000      35.00000000    1024.50000000
  12 1 63       0.88139791     864.00000000      35.00000000    1024.50000000
  13 1 64       0.88139791     864.00000000      35.00000000    1024.50000000
  13 1 65       0.88139791     864.00000000      35.00000000    1024.50000000
  14 1 66       0.88139791     864.00000000      35.00000000    1024.50000000
  14 1 67       0.88139791     864.00000000      35.00000000    1024.50000000
  15 1 68       0.88139791     864.00000000      35.00000000    1024.50000000
  15 1 69       0.88139791     864.00000000      35.00000000    1024.50000000
  16 1 70       0.88139791     864.00000000      35.00000000    1024.50000000
  16 1 71       0.88139791     864.00000000      35.00000000    1024.50000000
  17 1 72       0.88139791     864.00000000      35.00000000    1024.50000000
  17 1 73       0.88139791     864.00000000      35.00000000    1024.50000000
  18 1 74       0.88139791     864.00000000      35.00000000    1024.50000000
  18 1 75       0.88139791     864.00000000      35.00000000    1024.50000000
  19 1 76       0.88139791     864.00000000      35.00000000    1024.50000000
  19 1 77       0.88139791     864.00000000      35.00000000    1024.50000000
  20 1 78       0.88139791     864.00000000      35.00000000    1024.50000000
  20 1 79       0.88139791     864.00000000      35.00000000    1024.50000000
  21 1 80       0.88139791     864.00000000      35.00000000    1024.50000000
END period  10

BEGIN period  11
  6 1 50       0.88481658     864.00000000      35.00000000    1024.50000000
  6 1 51       0.88481658     864.00000000      35.00000000    1024.50000000
  7 1 52       0.88481658     864.00000000      35.00000000    1024.50000000
  7 1 53       0.88481658     864.00000000      35.00000000    1024.50000000
  8 1 54       0.88481658     864.00000000      35.00000000    1024.50000000
  8 1 55       0.88481658     864.00000000      35.00000000    1024.50000000
  9 1 56       0.88481658     864.00000000      35.00000000    1024.50000000
  9 1 57       0.88481658     864.00000000      35.00000000    1024.50000000
  10 1 58       0.88481658     864.00000000      35.00000000    1024.50000000
  10 1 59       0.88481658     864.00000000      35.00000000    1024.50000000
  11 1 60       0.88481658     864.00000000      35.00000000    1024.50000000
  11 1 61       0.88481658     864.00000000      35.00000000    1024.50000000
  12 1 62       0.88481658     864.00000000      35.00000000    1024.50000000
  12 1 63       0.88481658     864.00000000      35.00000000    1024.50000000
  13 1 64       0.88481658     864.00000000      35.00000000    1024.50000000
  13 1 65       0.88481658     864.00000000      35.00000000    1024.50000000
  14 1 66       0.88481658     864.00000000      35.00000000    1024.50000000
  14 1 67       0.88481658     864.00000000      35.00000000    1024.50000000
  15 1 68       0.88481658     864.00000000      35.00000000    1024.50000000
  15 1 69       0.88481658     864.00000000      35.00000000    1024.50000000
  16 1 70       0.88481658     864.00000000      35.00000000    1024.50000000
  16 1 71       0.88481658     864.00000000      35.00000000    1024.50000000
  17 1 72       0.88481658     864.00000000      35.00000000    1024.50000000
  17 1 73       0.88481658     864.00000000      35.00000000    1024.50000000
  18 1 74       0.88481658     864.00000000      35.00000000    1024.50000000
  18 1 75       0.88481658     864.00000000      35.00000000    1024.50000000
  19 1 76       0.88481658     864.00000000      35.00000000    1024.50000000
  19 1 77       0.88481658     864.00000000      35.00000000    1024.50000000
  20 1 78       0.88481658     864.00000000      35.00000000    1024.50000000
  20 1 79       0.88481658     864.00000000      35.00000000    1024.50000000
  21 1 80       0.88481658     864.00000000      35.00000000    1024.50000000
END period  11

BEGIN period  12
  5 1 48       0.88821327     864.00000000      35.00000000    1024.50000000
  5 1 49       0.88821327     864.00000000      35.00000000    1024.50000000
  6 1 50       0.88821327     864.00000000      35.00000000    1024.50000000
  6 1 51       0.88821327     864.00000000      35.00000000    1024.50000000
  7 1 52       0.88821327     864.00000000      35.00000000    1024.50000000
  7 1 53       0.88821327     864.00000000      35.00000000    1024.50000000
  8 1 54       0.88821327     864.00000000      35.00000000    1024.50000000
  8 1 55       0.88821327     864.00000000      35.00000000    1024.50000000
  9 1 56       0.88821327     864.00000000      35.00000000    1024.50000000
  9 1 57       0.88821327     864.00000000      35.00000000    1024.50000000
  10 1 58       0.88821327     864.00000000      35.00000000    1024.50000000
  10 1 59       0.88821327     864.00000000      35.00000000    1024.50000000
  11 1 60       0.88821327     864.00000000      35.00000000    1024.50000000
  11 1 61       0.88821327     864.00000000      35.00000000    1024.50000000
  12 1 62       0.88821327     864.00000000      35.00000000    1024.50000000
  12 1 63       0.88821327     864.00000000      35.00000000    1024.50000000
  13 1 64       0.88821327     864.00000000      35.00000000    1024.50000000
  13 1 65       0.88821327     864.00000000      35.00000000    1024.50000000
  14 1 66       0.88821327     864.00000000      35.00000000    1024.50000000
  14 1 67       0.88821327     864.00000000      35.00000000    1024.50000000
  15 1 68       0.88821327     864.00000000      35.00000000    1024.50000000
  15 1 69       0.88821327     864.00000000      35.00000000    1024.50000000
  16 1 70       0.88821327     864.00000000      35.00000000    1024.50000000
  16 1 71       0.88821327     864.00000000      35.00000000    1024.50000000
  17 1 72       0.88821327     864.00000000      35.00000000    1024.50000000
  17 1 73       0.88821327     864.00000000      35.00000000    1024.50000000
  18 1 74       0.88821327     864.00000000      35.00000000    1024.50000000
  18 1 75       0.88821327     864.00000000      35.00000000    1024.50000000
  19 1 76       0.88821327     864.00000000      35.00000000    1024.50000000
  19 1 77       0.88821327     864.00000000      35.00000000    1024.50000000
  20 1 78       0.88821327     864.00000000      35.00000000    1024.50000000
  20 1 79       0.88821327     864.00000000      35.00000000    1024.50000000
  21 1 80       0.88821327     864.00000000      35.00000000    1024.50000000
END period  12

BEGIN period  13
  5 1 48       0.89158582     864.00000000      35.00000000    1024.50000000
  5 1 49       0.89158582     864.00000000      35.00000000    1024.50000000
  6 1 50       0.89158582     864.00000000      35.00000000    1024.50000000
  6 1 51       0.89158582     864.00000000      35.00000000    1024.50000000
  7 1 52       0.89158582     864.00000000      35.00000000    1024.50000000
  7 1 53       0.89158582     864.00000000      35.00000000    1024.50000000
  8 1 54       0.89158582     864.00000000      35.00000000    1024.50000000
  8 1 55       0.89158582     864.00000000      35.00000000    1024.50000000
  9 1 56       0.89158582     864.00000000      35.00000000    1024.50000000
  9 1 57       0.89158582     864.00000000      35.00000000    1024.50000000
  10 1 58       0.89158582     864.00000000      35.00000000    1024.50000000
  10 1 59       0.89158582     864.00000000      35.00000000    1024.50000000
  11 1 60       0.89158582     864.00000000      35.00000000    1024.50000000