BEGIN options
  FLOW_IMBALANCE_CORRECTION
END options

