begin options
  print_option  all
end options

begin nonlinear
  outer_dvclose  1.00000000e-06
  outer_maximum  300
end nonlinear

begin linear
  inner_maximum  50
  inner_dvclose  1.00000000e-07
  inner_rclose  1.00000000e-05
  linear_acceleration  bicgstab
  relaxation_factor       0.97000000
  scaling_method  none
  reordering_method  none
end linear
