BEGIN options
  XT3D_OFF
END options

BEGIN griddata
  diffc
    CONSTANT       0.57024000
END griddata

