BEGIN options
END options

BEGIN dimensions
  NLAY  40
  NROW  1
  NCOL  80
END dimensions

BEGIN griddata
  delr
    CONSTANT       0.02500000
  delc
    CONSTANT       1.00000000
  top
    CONSTANT       1.00000000
  botm  LAYERED
    INTERNAL  FACTOR  1.0
           0.97500000       0.97500000       0.97500000       0.97500000       0.97500000       0.97500000       0.97500000       0.97500000       0.97500000       0.97500000       0.97500000       0.97500000       0.97500000       0.97500000       0.97500000       0.97500000       0.97500000       0.97500000       0.97500000       0.97500000
           0.97500000       0.97500000       0.97500000       0.97500000       0.97500000       0.97500000       0.97500000       0.97500000       0.97500000       0.97500000       0.97500000       0.97500000       0.97500000       0.97500000       0.97500000       0.97500000       0.97500000       0.97500000       0.97500000       0.97500000
           0.97500000       0.97500000       0.97500000       0.97500000       0.97500000       0.97500000       0.97500000       0.97500000       0.97500000       0.97500000       0.97500000       0.97500000       0.97500000       0.97500000       0.97500000       0.97500000       0.97500000       0.97500000       0.97500000       0.97500000
           0.97500000       0.97500000       0.97500000       0.97500000       0.97500000       0.97500000       0.97500000       0.97500000       0.97500000       0.97500000       0.97500000       0.97500000       0.97500000       0.97500000       0.97500000       0.97500000       0.97500000       0.97500000       0.97500000       0.97500000
    INTERNAL  FACTOR  1.0
           0.95000000       0.95000000       0.95000000       0.95000000       0.95000000       0.95000000       0.95000000       0.95000000       0.95000000       0.95000000       0.95000000       0.95000000       0.95000000       0.95000000       0.95000000       0.95000000       0.95000000       0.95000000       0.95000000       0.95000000
           0.95000000       0.95000000       0.95000000       0.95000000       0.95000000       0.95000000       0.95000000       0.95000000       0.95000000       0.95000000       0.95000000       0.95000000       0.95000000       0.95000000       0.95000000       0.95000000       0.95000000       0.95000000       0.95000000       0.95000000
           0.95000000       0.95000000       0.95000000       0.95000000       0.95000000       0.95000000       0.95000000       0.95000000       0.95000000       0.95000000       0.95000000       0.95000000       0.95000000       0.95000000       0.95000000       0.95000000       0.95000000       0.95000000       0.95000000       0.95000000
           0.95000000       0.95000000       0.95000000       0.95000000       0.95000000       0.95000000       0.95000000       0.95000000       0.95000000       0.95000000       0.95000000       0.95000000       0.95000000       0.95000000       0.95000000       0.95000000       0.95000000       0.95000000       0.95000000       0.95000000
    INTERNAL  FACTOR  1.0
           0.92500000       0.92500000       0.92500000       0.92500000       0.92500000       0.92500000       0.92500000       0.92500000       0.92500000       0.92500000       0.92500000       0.92500000       0.92500000       0.92500000       0.92500000       0.92500000       0.92500000       0.92500000       0.92500000       0.92500000
           0.92500000       0.92500000       0.92500000       0.92500000       0.92500000       0.92500000       0.92500000       0.92500000       0.92500000       0.92500000       0.92500000       0.92500000       0.92500000       0.92500000       0.92500000       0.92500000       0.92500000       0.92500000       0.92500000       0.92500000
           0.92500000       0.92500000       0.92500000       0.92500000       0.92500000       0.92500000       0.92500000       0.92500000       0.92500000       0.92500000       0.92500000       0.92500000       0.92500000       0.92500000       0.92500000       0.92500000       0.92500000       0.92500000       0.92500000       0.92500000
           0.92500000       0.92500000       0.92500000       0.92500000       0.92500000       0.92500000       0.92500000       0.92500000       0.92500000       0.92500000       0.92500000       0.92500000       0.92500000       0.92500000       0.92500000       0.92500000       0.92500000       0.92500000       0.92500000       0.92500000
    INTERNAL  FACTOR  1.0
           0.90000000       0.90000000       0.90000000       0.90000000       0.90000000       0.90000000       0.90000000       0.90000000       0.90000000       0.90000000       0.90000000       0.90000000       0.90000000       0.90000000       0.90000000       0.90000000       0.90000000       0.90000000       0.90000000       0.90000000
           0.90000000       0.90000000       0.90000000       0.90000000       0.90000000       0.90000000       0.90000000       0.90000000       0.90000000       0.90000000       0.90000000       0.90000000       0.90000000       0.90000000       0.90000000       0.90000000       0.90000000       0.90000000       0.90000000       0.90000000
           0.90000000       0.90000000       0.90000000       0.90000000       0.90000000       0.90000000       0.90000000       0.90000000       0.90000000       0.90000000       0.90000000       0.90000000       0.90000000       0.90000000       0.90000000       0.90000000       0.90000000       0.90000000       0.90000000       0.90000000
           0.90000000       0.90000000       0.90000000       0.90000000       0.90000000       0.90000000       0.90000000       0.90000000       0.90000000       0.90000000       0.90000000       0.90000000       0.90000000       0.90000000       0.90000000       0.90000000       0.90000000       0.90000000       0.90000000       0.90000000
    INTERNAL  FACTOR  1.0
           0.87500000       0.87500000       0.87500000       0.87500000       0.87500000       0.87500000       0.87500000       0.87500000       0.87500000       0.87500000       0.87500000       0.87500000       0.87500000       0.87500000       0.87500000       0.87500000       0.87500000       0.87500000       0.87500000       0.87500000
           0.87500000       0.87500000       0.87500000       0.87500000       0.87500000       0.87500000       0.87500000       0.87500000       0.87500000       0.87500000       0.87500000       0.87500000       0.87500000       0.87500000       0.87500000       0.87500000       0.87500000       0.87500000       0.87500000       0.87500000
           0.87500000       0.87500000       0.87500000       0.87500000       0.87500000       0.87500000       0.87500000       0.87500000       0.87500000       0.87500000       0.87500000       0.87500000       0.87500000       0.87500000       0.87500000       0.87500000       0.87500000       0.87500000       0.87500000       0.87500000
           0.87500000       0.87500000       0.87500000       0.87500000       0.87500000       0.87500000       0.87500000       0.87500000       0.87500000       0.87500000       0.87500000       0.87500000       0.87500000       0.87500000       0.87500000       0.87500000       0.87500000       0.87500000       0.87500000       0.87500000
    INTERNAL  FACTOR  1.0
           0.85000000       0.85000000       0.85000000       0.85000000       0.85000000       0.85000000       0.85000000       0.85000000       0.85000000       0.85000000       0.85000000       0.85000000       0.85000000       0.85000000       0.85000000       0.85000000       0.85000000       0.85000000       0.85000000       0.85000000
           0.85000000       0.85000000       0.85000000       0.85000000       0.85000000       0.85000000       0.85000000       0.85000000       0.85000000       0.85000000       0.85000000       0.85000000       0.85000000       0.85000000       0.85000000       0.85000000       0.85000000       0.85000000       0.85000000       0.85000000
           0.85000000       0.85000000       0.85000000       0.85000000       0.85000000       0.85000000       0.85000000       0.85000000       0.85000000       0.85000000       0.85000000       0.85000000       0.85000000       0.85000000       0.85000000       0.85000000       0.85000000       0.85000000       0.85000000       0.85000000
           0.85000000       0.85000000       0.85000000       0.85000000       0.85000000       0.85000000       0.85000000       0.85000000       0.85000000       0.85000000       0.85000000       0.85000000       0.85000000       0.85000000       0.85000000       0.85000000       0.85000000       0.85000000       0.85000000       0.85000000
    INTERNAL  FACTOR  1.0
           0.82500000       0.82500000       0.82500000       0.82500000       0.82500000       0.82500000       0.82500000       0.82500000       0.82500000       0.82500000       0.82500000       0.82500000       0.82500000       0.82500000       0.82500000       0.82500000       0.82500000       0.82500000       0.82500000       0.82500000
           0.82500000       0.82500000       0.82500000       0.82500000       0.82500000       0.82500000       0.82500000       0.82500000       0.82500000       0.82500000       0.82500000       0.82500000       0.82500000       0.82500000       0.82500000       0.82500000       0.82500000       0.82500000       0.82500000       0.82500000
           0.82500000       0.82500000       0.82500000       0.82500000       0.82500000       0.82500000       0.82500000       0.82500000       0.82500000       0.82500000       0.82500000       0.82500000       0.82500000       0.82500000       0.82500000       0.82500000       0.82500000       0.82500000       0.82500000       0.82500000
           0.82500000       0.82500000       0.82500000       0.82500000       0.82500000       0.82500000       0.82500000       0.82500000       0.82500000       0.82500000       0.82500000       0.82500000       0.82500000       0.82500000       0.82500000       0.82500000       0.82500000       0.82500000       0.82500000       0.82500000
    INTERNAL  FACTOR  1.0
           0.80000000       0.80000000       0.80000000       0.80000000       0.80000000       0.80000000       0.80000000       0.80000000       0.80000000       0.80000000       0.80000000       0.80000000       0.80000000       0.80000000       0.80000000       0.80000000       0.80000000       0.80000000       0.80000000       0.80000000
           0.80000000       0.80000000       0.80000000       0.80000000       0.80000000       0.80000000       0.80000000       0.80000000       0.80000000       0.80000000       0.80000000       0.80000000       0.80000000       0.80000000       0.80000000       0.80000000       0.80000000       0.80000000       0.80000000       0.80000000
           0.80000000       0.80000000       0.80000000       0.80000000       0.80000000       0.80000000       0.80000000       0.80000000       0.80000000       0.80000000       0.80000000       0.80000000       0.80000000       0.80000000       0.80000000       0.80000000       0.80000000       0.80000000       0.80000000       0.80000000
           0.80000000       0.80000000       0.80000000       0.80000000       0.80000000       0.80000000       0.80000000       0.80000000       0.80000000       0.80000000       0.80000000       0.80000000       0.80000000       0.80000000       0.80000000       0.80000000       0.80000000       0.80000000       0.80000000       0.80000000
    INTERNAL  FACTOR  1.0
           0.77500000       0.77500000       0.77500000       0.77500000       0.77500000       0.77500000       0.77500000       0.77500000       0.77500000       0.77500000       0.77500000       0.77500000       0.77500000       0.77500000       0.77500000       0.77500000       0.77500000       0.77500000       0.77500000       0.77500000
           0.77500000       0.77500000       0.77500000       0.77500000       0.77500000       0.77500000       0.77500000       0.77500000       0.77500000       0.77500000       0.77500000       0.77500000       0.77500000       0.77500000       0.77500000       0.77500000       0.77500000       0.77500000       0.77500000       0.77500000
           0.77500000       0.77500000       0.77500000       0.77500000       0.77500000       0.77500000       0.77500000       0.77500000       0.77500000       0.77500000       0.77500000       0.77500000       0.77500000       0.77500000       0.77500000       0.77500000       0.77500000       0.77500000       0.77500000       0.77500000
           0.77500000       0.77500000       0.77500000       0.77500000       0.77500000       0.77500000       0.77500000       0.77500000       0.77500000       0.77500000       0.77500000       0.77500000       0.77500000       0.77500000       0.77500000       0.77500000       0.77500000       0.77500000       0.77500000       0.77500000
    INTERNAL  FACTOR  1.0
           0.75000000       0.75000000       0.75000000       0.75000000       0.75000000       0.75000000       0.75000000       0.75000000       0.75000000       0.75000000       0.75000000       0.75000000       0.75000000       0.75000000       0.75000000       0.75000000       0.75000000       0.75000000       0.75000000       0.75000000
           0.75000000       0.75000000       0.75000000       0.75000000       0.75000000       0.75000000       0.75000000       0.75000000       0.75000000       0.75000000       0.75000000       0.75000000       0.75000000       0.75000000       0.75000000       0.75000000       0.75000000       0.75000000       0.75000000       0.75000000
           0.75000000       0.75000000       0.75000000       0.75000000       0.75000000       0.75000000       0.75000000       0.75000000       0.75000000       0.75000000       0.75000000       0.75000000       0.75000000       0.75000000       0.75000000       0.75000000       0.75000000       0.75000000       0.75000000       0.75000000
           0.75000000       0.75000000       0.75000000       0.75000000       0.75000000       0.75000000       0.75000000       0.75000000       0.75000000       0.75000000       0.75000000       0.75000000       0.75000000       0.75000000       0.75000000       0.75000000       0.75000000       0.75000000       0.75000000       0.75000000
    INTERNAL  FACTOR  1.0
           0.72500000       0.72500000       0.72500000       0.72500000       0.72500000       0.72500000       0.72500000       0.72500000       0.72500000       0.72500000       0.72500000       0.72500000       0.72500000       0.72500000       0.72500000       0.72500000       0.72500000       0.72500000       0.72500000       0.72500000
           0.72500000       0.72500000       0.72500000       0.72500000       0.72500000       0.72500000       0.72500000       0.72500000       0.72500000       0.72500000       0.72500000       0.72500000       0.72500000       0.72500000       0.72500000       0.72500000       0.72500000       0.72500000       0.72500000       0.72500000
           0.72500000       0.72500000       0.72500000       0.72500000       0.72500000       0.72500000       0.72500000       0.72500000       0.72500000       0.72500000       0.72500000       0.72500000       0.72500000       0.72500000       0.72500000       0.72500000       0.72500000       0.72500000       0.72500000       0.72500000
           0.72500000       0.72500000       0.72500000       0.72500000       0.72500000       0.72500000       0.72500000       0.72500000       0.72500000       0.72500000       0.72500000       0.72500000       0.72500000       0.72500000       0.72500000       0.72500000       0.72500000       0.72500000       0.72500000       0.72500000
    INTERNAL  FACTOR  1.0
           0.70000000       0.70000000       0.70000000       0.70000000       0.70000000       0.70000000       0.70000000       0.70000000       0.70000000       0.70000000       0.70000000       0.70000000       0.70000000       0.70000000       0.70000000       0.70000000       0.70000000       0.70000000       0.70000000       0.70000000
           0.70000000       0.70000000       0.70000000       0.70000000       0.70000000       0.70000000       0.70000000       0.70000000       0.70000000       0.70000000       0.70000000       0.70000000       0.70000000       0.70000000       0.70000000       0.70000000       0.70000000       0.70000000       0.70000000       0.70000000
           0.70000000       0.70000000       0.70000000       0.70000000       0.70000000       0.70000000       0.70000000       0.70000000       0.70000000       0.70000000       0.70000000       0.70000000       0.70000000       0.70000000       0.70000000       0.70000000       0.70000000       0.70000000       0.70000000       0.70000000
           0.70000000       0.70000000       0.70000000       0.70000000       0.70000000       0.70000000       0.70000000       0.70000000       0.70000000       0.70000000       0.70000000       0.70000000       0.70000000       0.70000000       0.70000000       0.70000000       0.70000000       0.70000000       0.70000000       0.70000000
    INTERNAL  FACTOR  1.0
           0.67500000       0.67500000       0.67500000       0.67500000       0.67500000       0.67500000       0.67500000       0.67500000       0.67500000       0.67500000       0.67500000       0.67500000       0.67500000       0.67500000       0.67500000       0.67500000       0.67500000       0.67500000       0.67500000       0.67500000
           0.67500000       0.67500000       0.67500000       0.67500000       0.67500000       0.67500000       0.67500000       0.67500000       0.67500000       0.67500000       0.67500000       0.67500000       0.67500000       0.67500000       0.67500000       0.67500000       0.67500000       0.67500000       0.67500000       0.67500000
           0.67500000       0.67500000       0.67500000       0.67500000       0.67500000       0.67500000       0.67500000       0.67500000       0.67500000       0.67500000       0.67500000       0.67500000       0.67500000       0.67500000       0.67500000       0.67500000       0.67500000       0.67500000       0.67500000       0.67500000
           0.67500000       0.67500000       0.67500000       0.67500000       0.67500000       0.67500000       0.67500000       0.67500000       0.67500000       0.67500000       0.67500000       0.67500000       0.67500000       0.67500000       0.67500000       0.67500000       0.67500000       0.67500000       0.67500000       0.67500000
    INTERNAL  FACTOR  1.0
           0.65000000       0.65000000       0.65000000       0.65000000       0.65000000       0.65000000       0.65000000       0.65000000       0.65000000       0.65000000       0.65000000       0.65000000       0.65000000       0.65000000       0.65000000       0.65000000       0.65000000       0.65000000       0.65000000       0.65000000
           0.65000000       0.65000000       0.65000000       0.65000000       0.65000000       0.65000000       0.65000000       0.65000000       0.65000000       0.65000000       0.65000000       0.65000000       0.65000000       0.65000000       0.65000000       0.65000000       0.65000000       0.65000000       0.65000000       0.65000000
           0.65000000       0.65000000       0.65000000       0.65000000       0.65000000       0.65000000       0.65000000       0.65000000       0.65000000       0.65000000       0.65000000       0.65000000       0.65000000       0.65000000       0.65000000       0.65000000       0.65000000       0.65000000       0.65000000       0.65000000
           0.65000000       0.65000000       0.65000000       0.65000000       0.65000000       0.65000000       0.65000000       0.65000000       0.65000000       0.65000000       0.65000000       0.65000000       0.65000000       0.65000000       0.65000000       0.65000000       0.65000000       0.65000000       0.65000000       0.65000000
    INTERNAL  FACTOR  1.0
           0.62500000       0.62500000       0.62500000       0.62500000       0.62500000       0.62500000       0.62500000       0.62500000       0.62500000       0.62500000       0.62500000       0.62500000       0.62500000       0.62500000       0.62500000       0.62500000       0.62500000       0.62500000       0.62500000       0.62500000
           0.62500000       0.62500000       0.62500000       0.62500000       0.62500000       0.62500000       0.62500000       0.62500000       0.62500000       0.62500000       0.62500000       0.62500000       0.62500000       0.62500000       0.62500000       0.62500000       0.62500000       0.62500000       0.62500000       0.62500000
           0.62500000       0.62500000       0.62500000       0.62500000       0.62500000       0.62500000       0.62500000       0.62500000       0.62500000       0.62500000       0.62500000       0.62500000       0.62500000       0.62500000       0.62500000       0.62500000       0.62500000       0.62500000       0.62500000       0.62500000
           0.62500000       0.62500000       0.62500000       0.62500000       0.62500000       0.62500000       0.62500000       0.62500000       0.62500000       0.62500000       0.62500000       0.62500000       0.62500000       0.62500000       0.62500000       0.62500000       0.62500000       0.62500000       0.62500000       0.62500000
    INTERNAL  FACTOR  1.0
           0.60000000       0.60000000       0.60000000       0.60000000       0.60000000       0.60000000       0.60000000       0.60000000       0.60000000       0.60000000       0.60000000       0.60000000       0.60000000       0.60000000       0.60000000       0.60000000       0.60000000       0.60000000       0.60000000       0.60000000
           0.60000000       0.60000000       0.60000000       0.60000000       0.60000000       0.60000000       0.60000000       0.60000000       0.60000000       0.60000000       0.60000000       0.60000000       0.60000000       0.60000000       0.60000000       0.60000000       0.60000000       0.60000000       0.60000000       0.60000000
           0.60000000       0.60000000       0.60000000       0.60000000       0.60000000       0.60000000       0.60000000       0.60000000       0.60000000       0.60000000       0.60000000       0.60000000       0.60000000       0.60000000       0.60000000       0.60000000       0.60000000       0.60000000       0.60000000       0.60000000
           0.60000000       0.60000000       0.60000000       0.60000000       0.60000000       0.60000000       0.60000000       0.60000000       0.60000000       0.60000000       0.60000000       0.60000000       0.60000000       0.60000000       0.60000000       0.60000000       0.60000000       0.60000000       0.60000000       0.60000000
    INTERNAL  FACTOR  1.0
           0.57500000       0.57500000       0.57500000       0.57500000       0.57500000       0.57500000       0.57500000       0.57500000       0.57500000       0.57500000       0.57500000       0.57500000       0.57500000       0.57500000       0.57500000       0.57500000       0.57500000       0.57500000       0.57500000       0.57500000
           0.57500000       0.57500000       0.57500000       0.57500000       0.57500000       0.57500000       0.57500000       0.57500000       0.57500000       0.57500000       0.57500000       0.57500000       0.57500000       0.57500000       0.57500000       0.57500000       0.57500000       0.57500000       0.57500000       0.57500000
           0.57500000       0.57500000       0.57500000       0.57500000       0.57500000       0.57500000       0.57500000       0.57500000       0.57500000       0.57500000       0.57500000       0.57500000       0.57500000       0.57500000       0.57500000       0.57500000       0.57500000       0.57500000       0.57500000       0.57500000
           0.57500000       0.57500000       0.57500000       0.57500000       0.57500000       0.57500000       0.57500000       0.57500000       0.57500000       0.57500000       0.57500000       0.57500000       0.57500000       0.57500000       0.57500000       0.57500000       0.57500000       0.57500000       0.57500000       0.57500000
    INTERNAL  FACTOR  1.0
           0.55000000       0.55000000       0.55000000       0.55000000       0.55000000       0.55000000       0.55000000       0.55000000       0.55000000       0.55000000       0.55000000       0.55000000       0.55000000       0.55000000       0.55000000       0.55000000       0.55000000       0.55000000       0.55000000       0.55000000
           0.55000000       0.55000000       0.55000000       0.55000000       0.55000000       0.55000000       0.55000000       0.55000000       0.55000000       0.55000000       0.55000000       0.55000000       0.55000000       0.55000000       0.55000000       0.55000000       0.55000000       0.55000000       0.55000000       0.55000000
           0.55000000       0.55000000       0.55000000       0.55000000       0.55000000       0.55000000       0.55000000       0.55000000       0.55000000       0.55000000       0.55000000       0.55000000       0.55000000       0.55000000       0.55000000       0.55000000       0.55000000       0.55000000       0.55000000       0.55000000
           0.55000000       0.55000000       0.55000000       0.55000000       0.55000000       0.55000000       0.55000000       0.55000000       0.55000000       0.55000000       0.55000000       0.55000000       0.55000000       0.55000000       0.55000000       0.55000000       0.55000000       0.55000000       0.55000000       0.55000000
    INTERNAL  FACTOR  1.0
           0.52500000       0.52500000       0.52500000       0.52500000       0.52500000       0.52500000       0.52500000       0.52500000       0.52500000       0.52500000       0.52500000       0.52500000       0.52500000       0.52500000       0.52500000       0.52500000       0.52500000       0.52500000       0.52500000       0.52500000
           0.52500000       0.52500000       0.52500000       0.52500000       0.52500000       0.52500000       0.52500000       0.52500000       0.52500000       0.52500000       0.52500000       0.52500000       0.52500000       0.52500000       0.52500000       0.52500000       0.52500000       0.52500000       0.52500000       0.52500000
           0.52500000       0.52500000       0.52500000       0.52500000       0.52500000       0.52500000       0.52500000       0.52500000       0.52500000       0.52500000       0.52500000       0.52500000       0.52500000       0.52500000       0.52500000       0.52500000       0.52500000       0.52500000       0.52500000       0.52500000
           0.52500000       0.52500000       0.52500000       0.52500000       0.52500000       0.52500000       0.52500000       0.52500000       0.52500000       0.52500000       0.52500000       0.52500000       0.52500000       0.52500000       0.52500000       0.52500000       0.52500000       0.52500000       0.52500000       0.52500000
    INTERNAL  FACTOR  1.0
           0.50000000       0.50000000       0.50000000       0.50000000       0.50000000       0.50000000       0.50000000       0.50000000       0.50000000       0.50000000       0.50000000       0.50000000       0.50000000       0.50000000       0.50000000       0.50000000       0.50000000       0.50000000       0.50000000       0.50000000
           0.50000000       0.50000000       0.50000000       0.50000000       0.50000000       0.50000000       0.50000000       0.50000000       0.50000000       0.50000000       0.50000000       0.50000000       0.50000000       0.50000000       0.50000000       0.50000000       0.50000000       0.50000000       0.50000000       0.50000000
           0.50000000       0.50000000       0.50000000       0.50000000       0.50000000       0.50000000       0.50000000       0.50000000       0.50000000       0.50000000       0.50000000       0.50000000       0.50000000       0.50000000       0.50000000       0.50000000       0.50000000       0.50000000       0.50000000       0.50000000
           0.50000000       0.50000000       0.50000000       0.50000000       0.50000000       0.50000000       0.50000000       0.50000000       0.50000000       0.50000000       0.50000000       0.50000000       0.50000000       0.50000000       0.50000000       0.50000000       0.50000000       0.50000000       0.50000000       0.50000000
    INTERNAL  FACTOR  1.0
           0.47500000       0.47500000       0.47500000       0.47500000       0.47500000       0.47500000       0.47500000       0.47500000       0.47500000       0.47500000       0.47500000       0.47500000       0.47500000       0.47500000       0.47500000       0.47500000       0.47500000       0.47500000       0.47500000       0.47500000
           0.47500000       0.47500000       0.47500000       0.47500000       0.47500000       0.47500000       0.47500000       0.47500000       0.47500000       0.47500000       0.47500000       0.47500000       0.47500000       0.47500000       0.47500000       0.47500000       0.47500000       0.47500000       0.47500000       0.47500000
           0.47500000       0.47500000       0.47500000       0.47500000       0.47500000       0.47500000       0.47500000       0.47500000       0.47500000       0.47500000       0.47500000       0.47500000       0.47500000       0.47500000       0.47500000       0.47500000       0.47500000       0.47500000       0.47500000       0.47500000
           0.47500000       0.47500000       0.47500000       0.47500000       0.47500000       0.47500000       0.47500000       0.47500000       0.47500000       0.47500000       0.47500000       0.47500000       0.47500000       0.47500000       0.47500000       0.47500000       0.47500000       0.47500000       0.47500000       0.47500000
    INTERNAL  FACTOR  1.0