BEGIN options
  TIME_UNITS  days
END options

BEGIN dimensions
  NPER  1001
END dimensions

BEGIN perioddata
       0.25000000  250       1.00000000
       0.00100000  1       1.00000000
       0.00100000  1       1.00000000
       0.00100000  1       1.00000000
       0.00100000  1       1.00000000
       0.00100000  1       1.00000000
       0.00100000  1       1.00000000
       0.00100000  1       1.00000000
       0.00100000  1       1.00000000
       0.00100000  1       1.00000000
       0.00100000  1       1.00000000
       0.00100000  1       1.00000000
       0.00100000  1       1.00000000
       0.00100000  1       1.00000000
       0.00100000  1       1.00000000
       0.00100000  1       1.00000000
       0.00100000  1       1.00000000
       0.00100000  1       1.00000000
       0.00100000  1       1.00000000
       0.00100000  1       1.00000000
       0.00100000  1       1.00000000
       0.00100000  1       1.00000000
       0.00100000  1       1.00000000
       0.00100000  1       1.00000000
       0.00100000  1       1.00000000
       0.00100000  1       1.00000000
       0.00100000  1       1.00000000
       0.00100000  1       1.00000000
       0.00100000  1       1.00000000
       0.00100000  1       1.00000000
       0.00100000  1       1.00000000
       0.00100000  1       1.00000000
       0.00100000  1       1.00000000
       0.00100000  1       1.00000000
       0.00100000  1       1.00000000
       0.00100000  1       1.00000000
       0.00100000  1       1.00000000
       0.00100000  1       1.00000000
       0.00100000  1       1.00000000
       0.00100000  1       1.00000000
       0.00100000  1       1.00000000
       0.00100000  1       1.00000000
       0.00100000  1       1.00000000
       0.00100000  1       1.00000000
       0.00100000  1       1.00000000
       0.00100000  1       1.00000000
       0.00100000  1       1.00000000
       0.00100000  1       1.00000000
       0.00100000  1       1.00000000
       0.00100000  1       1.00000000
       0.00100000  1       1.00000000
       0.00100000  1       1.00000000
       0.00100000  1       1.00000000
       0.00100000  1       1.00000000
       0.00100000  1       1.00000000
       0.00100000  1       1.00000000
       0.00100000  1       1.00000000
       0.00100000  1       1.00000000
       0.00100000  1       1.00000000
       0.00100000  1       1.00000000
       0.00100000  1       1.00000000
       0.00100000  1       1.00000000
       0.00100000  1       1.00000000
       0.00100000  1       1.00000000
       0.00100000  1       1.00000000
       0.00100000  1       1.00000000
       0.00100000  1       1.00000000
       0.00100000  1       1.00000000
       0.00100000  1       1.00000000
       0.00100000  1       1.00000000
       0.00100000  1       1.00000000
       0.00100000  1       1.00000000
       0.00100000  1       1.00000000
       0.00100000  1       1.00000000
       0.00100000  1       1.00000000
       0.00100000  1       1.00000000
       0.00100000  1       1.00000000
       0.00100000  1       1.00000000
       0.00100000  1       1.00000000
       0.00100000  1       1.00000000
       0.00100000  1       1.00000000
       0.00100000  1       1.00000000
       0.00100000  1       1.00000000
       0.00100000  1       1.00000000
       0.00100000  1       1.00000000
       0.00100000  1       1.00000000
       0.00100000  1       1.00000000
       0.00100000  1       1.00000000
       0.00100000  1       1.00000000
       0.00100000  1       1.00000000
       0.00100000  1       1.00000000
       0.00100000  1       1.00000000
       0.00100000  1       1.00000000
       0.00100000  1       1.00000000
       0.00100000  1       1.00000000
       0.00100000  1       1.00000000
       0.00100000  1       1.00000000
       0.00100000  1       1.00000000
       0.00100000  1       1.00000000
       0.00100000  1       1.00000000
       0.00100000  1       1.00000000
       0.00100000  1       1.00000000
       0.00100000  1       1.00000000
       0.00100000  1       1.00000000
       0.00100000  1       1.00000000
       0.00100000  1       1.00000000
       0.00100000  1       1.00000000
       0.00100000  1       1.00000000
       0.00100000  1       1.00000000
       0.00100000  1       1.00000000
       0.00100000  1       1.00000000
       0.00100000  1       1.00000000
       0.00100000  1       1.00000000
       0.00100000  1       1.00000000
       0.00100000  1       1.00000000
       0.00100000  1       1.00000000
       0.00100000  1       1.00000000
       0.00100000  1       1.00000000
       0.00100000  1       1.00000000
       0.00100000  1       1.00000000
       0.00100000  1       1.00000000
       0.00100000  1       1.00000000
       0.00100000  1       1.00000000
       0.00100000  1       1.00000000
       0.00100000  1       1.00000000
       0.00100000  1       1.00000000
       0.00100000  1       1.00000000
       0.00100000  1       1.00000000
       0.00100000  1       1.00000000
       0.00100000  1       1.00000000
       0.00100000  1       1.00000000
       0.00100000  1       1.00000000
       0.00100000  1       1.00000000
       0.00100000  1       1.00000000
       0.00100000  1       1.00000000
       0.00100000  1       1.00000000
       0.00100000  1       1.00000000
       0.00100000  1       1.00000000
       0.00100000  1       1.00000000
       0.00100000  1       1.00000000
       0.00100000  1       1.00000000
       0.00100000  1       1.00000000
       0.00100000  1       1.00000000
       0.00100000  1       1.00000000
       0.00100000  1       1.00000000
       0.00100000  1       1.00000000
       0.00100000  1       1.00000000
       0.00100000  1       1.00000000
       0.00100000  1       1.00000000
       0.00100000  1       1.00000000
       0.00100000  1       1.00000000
       0.00100000  1       1.00000000
       0.00100000  1       1.00000000
       0.00100000  1       1.00000000
       0.00100000  1       1.00000000
       0.00100000  1       1.00000000
       0.00100000  1       1.00000000
       0.00100000  1       1.00000000
       0.00100000  1       1.00000000
       0.00100000  1       1.00000000
       0.00100000  1       1.00000000
       0.00100000  1       1.00000000
       0.00100000  1       1.00000000
       0.00100000  1       1.00000000
       0.00100000  1       1.00000000
       0.00100000  1       1.00000000
       0.00100000  1       1.00000000
       0.00100000  1       1.00000000
       0.00100000  1       1.00000000
       0.00100000  1       1.00000000
       0.00100000  1       1.00000000
       0.00100000  1       1.00000000
       0.00100000  1       1.00000000
       0.00100000  1       1.00000000
       0.00100000  1       1.00000000
       0.00100000  1       1.00000000
       0.00100000  1       1.00000000
       0.00100000  1       1.00000000
       0.00100000  1       1.00000000
       0.00100000  1       1.00000000
       0.00100000  1       1.00000000
       0.00100000  1       1.00000000
       0.00100000  1       1.00000000
       0.00100000  1       1.00000000
       0.00100000  1       1.00000000
       0.00100000  1       1.00000000
       0.00100000  1       1.00000000
       0.00100000  1       1.00000000
       0.00100000  1       1.00000000
       0.00100000  1       1.00000000
       0.00100000  1       1.00000000
       0.00100000  1       1.00000000
       0.00100000  1       1.00000000
       0.00100000  1       1.00000000
       0.00100000  1       1.00000000
       0.00100000  1       1.00000000
       0.00100000  1       1.00000000
       0.00100000  1       1.00000000
       0.00100000  1       1.00000000
       0.00100000  1       1.00000000
       0.00100000  1       1.00000000
       0.00100000  1       1.00000000
       0.00100000  1       1.00000000
       0.00100000  1       1.00000000
       0.00100000  1       1.00000000
       0.00100000  1       1.00000000
       0.00100000  1       1.00000000
       0.00100000  1       1.00000000
       0.00100000  1       1.00000000
       0.00100000  1       1.00000000
       0.00100000  1       1.00000000
       0.00100000  1       1.00000000
       0.00100000  1       1.00000000
       0.00100000  1       1.00000000
       0.00100000  1       1.00000000
       0.00100000  1       1.00000000
       0.00100000  1       1.00000000
       0.00100000  1       1.00000000
       0.00100000  1       1.00000000
       0.00100000  1       1.00000000
       0.00100000  1       1.00000000
       0.00100000  1       1.00000000
       0.00100000  1       1.00000000
       0.00100000  1       1.00000000
       0.00100000  1       1.00000000
       0.00100000  1       1.00000000
       0.00100000  1       1.00000000
       0.00100000  1       1.00000000
       0.00100000  1       1.00000000
       0.00100000  1       1.00000000
       0.00100000  1       1.00000000
       0.00100000  1       1.00000000
       0.00100000  1       1.00000000
       0.00100000  1       1.00000000
       0.00100000  1       1.00000000
       0.00100000  1       1.00000000
       0.00100000  1       1.00000000
       0.00100000  1       1.00000000
       0.00100000  1       1.00000000
       0.00100000  1       1.00000000
       0.00100000  1       1.00000000
       0.00100000  1       1.00000000
       0.00100000  1       1.00000000
       0.00100000  1       1.00000000
       0.00100000  1       1.00000000
       0.00100000  1       1.00000000
       0.00100000  1       1.00000000
       0.00100000  1       1.00000000
       0.00100000  1       1.00000000
       0.00100000  1       1.00000000
       0.00100000  1       1.00000000
       0.00100000  1       1.00000000
       0.00100000  1       1.00000000
       0.00100000  1       1.00000000
       0.00100000  1       1.00000000
       0.00100000  1       1.00000000
       0.00100000  1       1.00000000
       0.00100000  1       1.00000000
       0.00100000  1       1.00000000
       0.00100000  1       1.00000000
       0.00100000  1       1.00000000
       0.00100000  1       1.00000000
       0.00100000  1       1.00000000
       0.00100000  1       1.00000000
       0.00100000  1       1.00000000
       0.00100000  1       1.00000000
       0.00100000  1       1.00000000
       0.00100000  1       1.00000000
       0.00100000  1       1.00000000
       0.00100000  1       1.00000000
       0.00100000  1       1.00000000
       0.00100000  1       1.00000000
       0.00100000  1       1.00000000
       0.00100000  1       1.00000000
       0.00100000  1       1.00000000
       0.00100000  1       1.00000000
       0.00100000  1       1.00000000
       0.00100000  1       1.00000000
       0.00100000  1       1.00000000
       0.00100000  1       1.00000000
       0.00100000  1       1.00000000
       0.00100000  1       1.00000000
       0.00100000  1       1.00000000
       0.00100000  1       1.00000000
       0.00100000  1       1.00000000
       0.00100000  1       1.00000000
       0.00100000  1       1.00000000
       0.00100000  1       1.00000000
       0.00100000  1       1.00000000
       0.00100000  1       1.00000000
       0.00100000  1       1.00000000
       0.00100000  1       1.00000000
       0.00100000  1       1.00000000
       0.00100000  1       1.00000000
       0.00100000  1       1.00000000
       0.00100000  1       1.00000000
       0.00100000  1       1.00000000
       0.00100000  1       1.00000000
       0.00100000  1       1.00000000
       0.00100000  1       1.00000000
       0.00100000  1       1.00000000
       0.00100000  1       1.00000000
       0.00100000  1       1.00000000
       0.00100000  1       1.00000000
       0.00100000  1       1.00000000
       0.00100000  1       1.00000000
       0.00100000  1       1.00000000
       0.00100000  1       1.00000000
       0.00100000  1       1.00000000
       0.00100000  1       1.00000000
       0.00100000  1       1.00000000
       0.00100000  1       1.00000000
       0.00100000  1       1.00000000
       0.00100000  1       1.00000000
       0.00100000  1       1.00000000
       0.00100000  1       1.00000000
       0.00100000  1       1.00000000
       0.00100000  1       1.00000000
       0.00100000  1       1.00000000
       0.00100000  1       1.00000000
       0.00100000  1       1.00000000
       0.00100000  1       1.00000000
       0.00100000  1       1.00000000
       0.00100000  1       1.00000000
       0.00100000  1       1.00000000
       0.00100000  1       1.00000000
       0.00100000  1       1.00000000
       0.00100000  1       1.00000000
       0.00100000  1       1.00000000
       0.00100000  1       1.00000000
       0.00100000  1       1.00000000
       0.00100000  1       1.00000000
       0.00100000  1       1.00000000
       0.00100000  1       1.00000000
       0.00100000  1       1.00000000
       0.00100000  1       1.00000000
       0.00100000  1       1.00000000
       0.00100000  1       1.00000000
       0.00100000  1       1.00000000
       0.00100000  1       1.00000000
       0.00100000  1       1.00000000
       0.00100000  1       1.00000000
       0.00100000  1       1.00000000
       0.00100000  1       1.00000000
       0.00100000  1       1.00000000
       0.00100000  1       1.00000000
       0.00100000  1       1.00000000
       0.00100000  1       1.00000000
       0.00100000  1       1.00000000
       0.00100000  1       1.00000000
       0.00100000  1       1.00000000
       0.00100000  1       1.00000000
       0.00100000  1       1.00000000
       0.00100000  1       1.00000000
       0.00100000  1       1.00000000
       0.00100000  1       1.00000000
       0.00100000  1       1.00000000
       0.00100000  1       1.00000000
       0.00100000  1       1.00000000
       0.00100000  1       1.00000000
       0.00100000  1       1.00000000
       0.00100000  1       1.00000000
       0.00100000  1       1.00000000
       0.00100000  1       1.00000000
       0.00100000  1       1.00000000
       0.00100000  1       1.00000000
       0.00100000  1       1.00000000
       0.00100000  1       1.00000000
       0.00100000  1       1.00000000
       0.00100000  1       1.00000000
       0.00100000  1       1.00000000
       0.00100000  1       1.00000000
       0.00100000  1       1.00000000
       0.00100000  1       1.00000000
       0.00100000  1       1.00000000
       0.00100000  1       1.00000000
       0.00100000  1       1.00000000
       0.00100000  1       1.00000000
       0.00100000  1       1.00000000
       0.00100000  1       1.00000000
       0.00100000  1       1.00000000
       0.00100000  1       1.00000000
       0.00100000  1       1.00000000
       0.00100000  1       1.00000000
       0.00100000  1       1.00000000
       0.00100000  1       1.00000000
       0.00100000  1       1.00000000
       0.00100000  1       1.00000000
       0.00100000  1       1.00000000
       0.00100000  1       1.00000000
       0.00100000  1       1.00000000
       0.00100000  1       1.00000000
       0.00100000  1       1.00000000
       0.00100000  1       1.00000000
       0.00100000  1       1.00000000
       0.00100000  1       1.00000000
       0.00100000  1       1.00000000
       0.00100000  1       1.00000000
       0.00100000  1       1.00000000
       0.00100000  1       1.00000000
       0.00100000  1       1.00000000
       0.00100000  1       1.00000000
       0.00100000  1       1.00000000
       0.00100000  1       1.00000000
       0.00100000  1       1.00000000
       0.00100000  1       1.00000000
       0.00100000  1       1.00000000
       0.00100000  1       1.00000000
       0.00100000  1       1.00000000
       0.00100000  1       1.00000000
       0.00100000  1       1.00000000
       0.00100000  1       1.00000000
       0.00100000  1       1.00000000
       0.00100000  1       1.00000000
       0.00100000  1       1.00000000
       0.00100000  1       1.00000000
       0.00100000  1       1.00000000
       0.00100000  1       1.00000000
       0.00100000  1       1.00000000
       0.00100000  1       1.00000000
       0.00100000  1       1.00000000
       0.00100000  1       1.00000000
       0.00100000  1       1.00000000
       0.00100000  1       1.00000000
       0.00100000  1       1.00000000
       0.00100000  1       1.00000000
       0.00100000  1       1.00000000
       0.00100000  1       1.00000000
       0.00100000  1       1.00000000
       0.00100000  1       1.00000000
       0.00100000  1       1.00000000
       0.00100000  1       1.00000000
       0.00100000  1       1.00000000
       0.00100000  1       1.00000000
       0.00100000  1       1.00000000
       0.00100000  1       1.00000000
       0.00100000  1       1.00000000
       0.00100000  1       1.00000000
       0.00100000  1       1.00000000
       0.00100000  1       1.00000000
       0.00100000  1       1.00000000
       0.00100000  1       1.00000000
       0.00100000  1       1.00000000
       0.00100000  1       1.00000000
       0.00100000  1       1.00000000
       0.00100000  1       1.00000000
       0.00100000  1       1.00000000
       0.00100000  1       1.00000000
       0.00100000  1       1.00000000
       0.00100000  1       1.00000000
       0.00100000  1       1.00000000
       0.00100000  1       1.00000000
       0.00100000  1       1.00000000
       0.00100000  1       1.00000000
       0.00100000  1       1.00000000
       0.00100000  1       1.00000000
       0.00100000  1       1.00000000
       0.00100000  1       1.00000000
       0.00100000  1       1.00000000
       0.00100000  1       1.00000000
       0.00100000  1       1.00000000
       0.00100000  1       1.00000000
       0.00100000  1       1.00000000
       0.00100000  1       1.00000000
       0.00100000  1       1.00000000
       0.00100000  1       1.00000000
       0.00100000  1       1.00000000
       0.00100000  1       1.00000000
       0.00100000  1       1.00000000
       0.00100000  1       1.00000000
       0.00100000  1       1.00000000
       0.00100000  1       1.00000000
       0.00100000  1       1.00000000
       0.00100000  1       1.00000000
       0.00100000  1       1.00000000
       0.00100000  1       1.00000000
       0.00100000  1       1.00000000
       0.00100000  1       1.00000000
       0.00100000  1       1.00000000
       0.00100000  1       1.00000000
       0.00100000  1       1.00000000
       0.00100000  1       1.00000000
       0.00100000  1       1.00000000
       0.00100000  1       1.00000000
       0.00100000  1       1.00000000
       0.00100000  1       1.00000000
       0.00100000  1       1.00000000
       0.00100000  1       1.00000000
       0.00100000  1       1.00000000
       0.00100000  1       1.00000000
       0.00100000  1       1.00000000
       0.00100000  1       1.00000000
       0.00100000  1       1.00000000
       0.00100000  1       1.00000000
       0.00100000  1       1.00000000
       0.00100000  1       1.00000000
       0.00100000  1       1.00000000
       0.00100000  1       1.00000000
       0.00100000  1       1.00000000
       0.00100000  1       1.00000000
       0.00100000  1       1.00000000
       0.00100000  1       1.00000000
       0.00100000  1       1.00000000
       0.00100000  1       1.00000000
       0.00100000  1       1.00000000
       0.00100000  1       1.00000000
       0.00100000  1       1.00000000
       0.00100000  1       1.00000000
       0.00100000  1       1.00000000
       0.00100000  1       1.00000000
       0.00100000  1       1.00000000
       0.00100000  1       1.00000000
       0.00100000  1       1.00000000
       0.00100000  1       1.00000000
       0.00100000  1       1.00000000
       0.00100000  1       1.00000000
       0.00100000  1       1.00000000
       0.00100000  1       1.00000000
       0.00100000  1       1.00000000
       0.00100000  1       1.00000000
       0.00100000  1       1.00000000
       0.00100000  1       1.00000000
       0.00100000  1       1.00000000
       0.00100000  1       1.00000000
       0.00100000  1       1.00000000
       0.00100000  1       1.00000000
       0.00100000  1       1.00000000
       0.00100000  1       1.00000000
       0.00100000  1       1.00000000
       0.00100000  1       1.00000000
       0.00100000  1       1.00000000
       0.00100000  1       1.00000000
       0.00100000  1       1.00000000
       0.00100000  1       1.00000000
       0.00100000  1       1.00000000
       0.00100000  1       1.00000000
       0.00100000  1       1.00000000
       0.00100000  1       1.00000000
       0.00100000  1       1.00000000
       0.00100000  1       1.00000000
       0.00100000  1       1.00000000
       0.00100000  1       1.00000000
       0.00100000  1       1.00000000
       0.00100000  1       1.00000000
       0.00100000  1       1.00000000
       0.00100000  1       1.00000000
       0.00100000  1       1.00000000
       0.00100000  1       1.00000000
       0.00100000  1       1.00000000
       0.00100000  1       1.00000000
       0.00100000  1       1.00000000
       0.00100000  1       1.00000000
       0.00100000  1       1.00000000
       0.00100000  1       1.00000000
       0.00100000  1       1.00000000
       0.00100000  1       1.00000000
       0.00100000  1       1.00000000
       0.00100000  1       1.00000000
       0.00100000  1       1.00000000
       0.00100000  1       1.00000000
       0.00100000  1       1.00000000
       0.00100000  1       1.00000000
       0.00100000  1       1.00000000
       0.00100000  1       1.00000000
       0.00100000  1       1.00000000
       0.00100000  1       1.00000000
       0.00100000  1       1.00000000
       0.00100000  1       1.00000000
       0.00100000  1       1.00000000
       0.00100000  1       1.00000000
       0.00100000  1       1.00000000
       0.00100000  1       1.00000000
       0.00100000  1       1.00000000
       0.00100000  1       1.00000000
       0.00100000  1       1.00000000
       0.00100000  1       1.00000000
       0.00100000  1       1.00000000
       0.00100000  1       1.00000000
       0.00100000  1       1.00000000
       0.00100000  1       1.00000000
       0.00100000  1       1.00000000
       0.00100000  1       1.00000000
       0.00100000  1       1.00000000
       0.00100000  1       1.00000000
       0.00100000  1       1.00000000
       0.00100000  1       1.00000000
       0.00100000  1       1.00000000
       0.00100000  1       1.00000000
       0.00100000  1       1.00000000
       0.00100000  1       1.00000000
       0.00100000  1       1.00000000
       0.00100000  1       1.00000000
       0.00100000  1       1.00000000
       0.00100000  1       1.00000000
       0.00100000  1       1.00000000
       0.00100000  1       1.00000000
       0.00100000  1       1.00000000
       0.00100000  1       1.00000000
       0.00100000  1       1.00000000
       0.00100000  1       1.00000000
       0.00100000  1       1.00000000
       0.00100000  1       1.00000000
       0.00100000  1       1.00000000
       0.00100000  1       1.00000000
       0.00100000  1       1.00000000
       0.00100000  1       1.00000000
       0.00100000  1       1.00000000
       0.00100000  1       1.00000000
       0.00100000  1       1.00000000
       0.00100000  1       1.00000000
       0.00100000  1       1.00000000
       0.00100000  1       1.00000000
       0.00100000  1       1.00000000
       0.00100000  1       1.00000000
       0.00100000  1       1.00000000
       0.00100000  1       1.00000000
       0.00100000  1       1.00000000
       0.00100000  1       1.00000000
       0.00100000  1       1.00000000
       0.00100000  1       1.00000000
       0.00100000  1       1.00000000
       0.00100000  1       1.00000000
       0.00100000  1       1.00000000
       0.00100000  1       1.00000000
       0.00100000  1       1.00000000
       0.00100000  1       1.00000000
       0.00100000  1       1.00000000
       0.00100000  1       1.00000000
       0.00100000  1       1.00000000
       0.00100000  1       1.00000000
       0.00100000  1       1.00000000
       0.00100000  1       1.00000000
       0.00100000  1       1.00000000
       0.00100000  1       1.00000000
       0.00100000  1       1.00000000
       0.00100000  1       1.00000000
       0.00100000  1       1.00000000
       0.00100000  1       1.00000000
       0.00100000  1       1.00000000
       0.00100000  1       1.00000000
       0.00100000  1       1.00000000
       0.00100000  1       1.00000000
       0.00100000  1       1.00000000
       0.00100000  1       1.00000000
       0.00100000  1       1.00000000
       0.00100000  1       1.00000000
       0.00100000  1       1.00000000
       0.00100000  1       1.00000000
       0.00100000  1       1.00000000
       0.00100000  1       1.00000000
       0.00100000  1       1.00000000
       0.00100000  1       1.00000000
       0.00100000  1       1.00000000
       0.00100000  1       1.00000000
       0.00100000  1       1.00000000
       0.00100000  1       1.00000000
       0.00100000  1       1.00000000
       0.00100000  1       1.00000000
       0.00100000  1       1.00000000
       0.00100000  1       1.00000000
       0.00100000  1       1.00000000
       0.00100000  1       1.00000000
       0.00100000  1       1.00000000
       0.00100000  1       1.00000000
       0.00100000  1       1.00000000
       0.00100000  1       1.00000000
       0.00100000  1       1.00000000
       0.00100000  1       1.00000000
       0.00100000  1       1.00000000
       0.00100000  1       1.00000000
       0.00100000  1       1.00000000
       0.00100000  1       1.00000000
       0.00100000  1       1.00000000
       0.00100000  1       1.00000000
       0.00100000  1       1.00000000
       0.00100000  1       1.00000000
       0.00100000  1       1.00000000
       0.00100000  1       1.00000000
       0.00100000  1       1.00000000
       0.00100000  1       1.00000000
       0.00100000  1       1.00000000
       0.00100000  1       1.00000000
       0.00100000  1       1.00000000
       0.00100000  1       1.00000000
       0.00100000  1       1.00000000
       0.00100000  1       1.00000000
       0.00100000  1       1.00000000
       0.00100000  1       1.00000000
       0.00100000  1       1.00000000
       0.00100000  1       1.00000000
       0.00100000  1       1.00000000
       0.00100000  1       1.00000000
       0.00100000  1       1.00000000
       0.00100000  1       1.00000000
       0.00100000  1       1.00000000
       0.00100000  1       1.00000000
       0.00100000  1       1.00000000
       0.00100000  1       1.00000000
       0.00100000  1       1.00000000
       0.00100000  1       1.00000000
       0.00100000  1       1.00000000
       0.00100000  1       1.00000000
       0.00100000  1       1.00000000
       0.00100000  1       1.00000000
       0.00100000  1       1.00000000
       0.00100000  1       1.00000000
       0.00100000  1       1.00000000
       0.00100000  1       1.00000000
       0.00100000  1       1.00000000
       0.00100000  1       1.00000000
       0.00100000  1       1.00000000
       0.00100000  1       1.00000000
       0.00100000  1       1.00000000
       0.00100000  1       1.00000000
       0.00100000  1       1.00000000
       0.00100000  1       1.00000000
       0.00100000  1       1.00000000
       0.00100000  1       1.00000000
       0.00100000  1       1.00000000
       0.00100000  1       1.00000000
       0.00100000  1       1.00000000
       0.00100000  1       1.00000000
       0.00100000  1       1.00000000
       0.00100000  1       1.00000000
       0.00100000  1       1.00000000
       0.00100000  1       1.00000000
       0.00100000  1       1.00000000
       0.00100000  1       1.00000000
       0.00100000  1       1.00000000
       0.00100000  1       1.00000000
       0.00100000  1       1.00000000
       0.00100000  1       1.00000000
       0.00100000  1       1.00000000
       0.00100000  1       1.00000000
       0.00100000  1       1.00000000
       0.00100000  1       1.00000000
       0.00100000  1       1.00000000
       0.00100000  1       1.00000000
       0.00100000  1       1.00000000
       0.00100000  1       1.00000000
       0.00100000  1       1.00000000
       0.00100000  1       1.00000000
       0.00100000  1       1.00000000
       0.00100000  1       1.00000000
       0.00100000  1       1.00000000
       0.00100000  1       1.00000000
       0.00100000  1       1.00000000
       0.00100000  1       1.00000000
       0.00100000  1       1.00000000
       0.00100000  1       1.00000000
       0.00100000  1       1.00000000
       0.00100000  1       1.00000000
       0.00100000  1       1.00000000
       0.00100000  1       1.00000000
       0.00100000  1       1.00000000
       0.00100000  1       1.00000000
       0.00100000  1       1.00000000
       0.00100000  1       1.00000000
       0.00100000  1       1.00000000
       0.00100000  1       1.00000000
       0.00100000  1       1.00000000
       0.00100000  1       1.00000000
       0.00100000  1       1.00000000
       0.00100000  1       1.00000000
       0.00100000  1       1.00000000
       0.00100000  1       1.00000000
       0.00100000  1       1.00000000
       0.00100000  1       1.00000000
       0.00100000  1       1.00000000
       0.00100000  1       1.00000000
       0.00100000  1       1.00000000
       0.00100000  1       1.00000000
       0.00100000  1       1.00000000
       0.00100000  1       1.00000000
       0.00100000  1       1.00000000
       0.00100000  1       1.00000000
       0.00100000  1       1.00000000
       0.00100000  1       1.00000000
       0.00100000  1       1.00000000
       0.00100000  1       1.00000000
       0.00100000  1       1.00000000
       0.00100000  1       1.00000000
       0.00100000  1       1.00000000
       0.00100000  1       1.00000000
       0.00100000  1       1.00000000
       0.00100000  1       1.00000000