begin options
  print_option all
end options

begin nonlinear
	outer_dvclose 1.e-6
	outer_maximum 500 
	under_relaxation none
	backtracking_number 0
end nonlinear


begin linear
	inner_dvclose 1.0e-6
	inner_rclose 0.001
	inner_maximum 100
	linear_acceleration cg
	scaling_method none
	reordering_method none
	relaxation_factor 1.0
end linear
