# DIS8 input file, prepared by mf5to15 on 4/10/2015 at 9:04:54.

BEGIN Options
  LENGTH_UNITS  METERS
END Options

BEGIN Dimensions
  NLAY  10
  NROW  1
  NCOL  10
END Dimensions

BEGIN GRIDDATA
  DELR
    CONSTANT   1.0000000        DELR
  DELC
    CONSTANT   1.000000        DELC
  TOP LAYERED
    CONSTANT   10.00000000        TOP array
  BOTM LAYERED
    CONSTANT  9.00000000        BOTM layer 1
    CONSTANT  8.00000000        BOTM layer 2
    CONSTANT  7.00000000        BOTM layer 3
    CONSTANT  6.00000000        BOTM layer 4
    CONSTANT  5.00000000        BOTM layer 5
    CONSTANT  4.00000000        BOTM layer 6
    CONSTANT  3.00000000        BOTM layer 7
    CONSTANT  2.00000000        BOTM layer 8
    CONSTANT  1.00000000        BOTM layer 9
    CONSTANT  0.00000000        BOTM layer 10
END GRIDDATA
