# TDIS8 input file, prepared by mf5to15 on 4/10/2015 at 9:04:54.

BEGIN Options
  TIME_UNITS DAYS
  START_DATE_TIME 1997-07-16T19:20:30.45+01:00
END Options

BEGIN Dimensions
  NPER 1
END Dimensions

BEGIN PERIODDATA
   1.00000000               1   1.00000000      Items: PERLEN NSTP TSMULT
END PERIODDATA
