# NPF8 input file, prepared by mf5to15 on 4/10/2015 at 9:04:54.

BEGIN Options
  SAVE_FLOWS
  SAVE_SPECIFIC_DISCHARGE
END Options

BEGIN GRIDDATA
  ICELLTYPE
    CONSTANT  1
  K
    CONSTANT   10.00000000    
END GRIDDATA
