# Well file for MODFLOW-2000, generated by Flopy.
         1         0
         1         0
         1       388       376            0
         1         0
         1       388       376        -1000
         1         0
         1       388       376        -1000
