# Discretization file for MODFLOW, generated by Flopy.
         4         1         1         2         4         2
  0  0  0  0
CONSTANT    1.000000E+00                           #delr                          
CONSTANT    1.000000E+00                           #delc                          
CONSTANT    0.000000E+00                           #model_top                     
CONSTANT   -1.000000E+00                           #botm Layer 1                  
CONSTANT   -2.000000E+00                           #botm Layer 2                  
CONSTANT   -3.000000E+00                           #botm Layer 3                  
CONSTANT   -4.000000E+00                           #botm Layer 4                  
      0.250000            25  1.000000  TR 
      0.250000            25  1.000000  TR 
