# Output control package file for MODFLOW, generated by Flopy.
HEAD PRINT FORMAT   0
HEAD SAVE UNIT    51
DRAWDOWN PRINT FORMAT   0
DRAWDOWN SAVE UNIT    52
COMPACT BUDGET FILES
period 1 step 1 
print head
save head
print budget
save budget

period 1 step 2 
print head
save head
print budget
save budget

period 1 step 3 
print head
save head
print budget
save budget

period 1 step 4 
print head
save head
print budget
save budget

period 1 step 5 
print head
save head
print budget
save budget

period 1 step 6 
print head
save head
print budget
save budget

period 1 step 7 
print head
save head
print budget
save budget

period 1 step 8 
print head
save head
print budget
save budget

period 1 step 9 
print head
save head
print budget
save budget

period 1 step 10 
print head
save head
print budget
save budget

period 1 step 11 
print head
save head
print budget
save budget

period 1 step 12 
print head
save head
print budget
save budget

period 1 step 13 
print head
save head
print budget
save budget

period 1 step 14 
print head
save head
print budget
save budget

period 1 step 15 
print head
save head
print budget
save budget

period 1 step 16 
print head
save head
print budget
save budget

period 1 step 17 
print head
save head
print budget
save budget

period 1 step 18 
print head
save head
print budget
save budget

period 1 step 19 
print head
save head
print budget
save budget

period 1 step 20 
print head
save head
print budget
save budget

period 1 step 21 
print head
save head
print budget
save budget

period 1 step 22 
print head
save head
print budget
save budget

period 1 step 23 
print head
save head
print budget
save budget

period 1 step 24 
print head
save head
print budget
save budget

period 1 step 25 
print head
save head
print budget
save budget

period 2 step 1 
print head
save head
print budget
save budget

period 2 step 2 
print head
save head
print budget
save budget

period 2 step 3 
print head
save head
print budget
save budget

period 2 step 4 
print head
save head
print budget
save budget

period 2 step 5 
print head
save head
print budget
save budget

period 2 step 6 
print head
save head
print budget
save budget

period 2 step 7 
print head
save head
print budget
save budget

period 2 step 8 
print head
save head
print budget
save budget

period 2 step 9 
print head
save head
print budget
save budget

period 2 step 10 
print head
save head
print budget
save budget

period 2 step 11 
print head
save head
print budget
save budget

period 2 step 12 
print head
save head
print budget
save budget

period 2 step 13 
print head
save head
print budget
save budget

period 2 step 14 
print head
save head
print budget
save budget

period 2 step 15 
print head
save head
print budget
save budget

period 2 step 16 
print head
save head
print budget
save budget

period 2 step 17 
print head
save head
print budget
save budget

period 2 step 18 
print head
save head
print budget
save budget

period 2 step 19 
print head
save head
print budget
save budget

period 2 step 20 
print head
save head
print budget
save budget

period 2 step 21 
print head
save head
print budget
save budget

period 2 step 22 
print head
save head
print budget
save budget

period 2 step 23 
print head
save head
print budget
save budget

period 2 step 24 
print head
save head
print budget
save budget

period 2 step 25 
print head
save head
print budget
save budget

