# RCH for MODFLOW, generated by Flopy.
         3         0
         1        -1 # Stress period 1
CONSTANT    4.566000E-03                           #rech_1                        
