# PCG for MODFLOW, generated by Flopy.
100 100 1 0               Item 1: mxiter iter1 npcond ihcofadd
1e-5 0.1 0.99 0 1 0 1.0   Item 2: hclose rclose relax nbpol iprpcg mutpcg damp
