# SMS for MODFLOW-USG, generated by Flopy.
# HCLOSE HICLOSE MXITER ITER1 IPRSMS NONLINMETH LINMETH
   1.e-6    1e-6    500   100      1          1       2
# THETA AKAPPA GAMMA AMOMENTUM NUMTRACK BTOL BREDUC RESLIM
    0.7   0.08  0.05       0.0       20  2.0    0.2  0.0005
# [CLIN] IPC ISCL IORD RCLOSEPCGU [RELAXPCGU]
    bcgs   3    0    0       500.        0.00

# xmd
# IACL NORDER LEVEL NORTH IREDSYS RRCTOL IDROPTOL EPSRN
     2      0     1     2       0    0.0        0 0.001
