# LPF for MODFLOW, generated by Flopy.
        53    -1E+30         0
         4
         0
   1.000000E+00
         0
         0
CONSTANT    1.000000E+00                           #hk layer 1                    
CONSTANT    1.000000E+00                           #vka layer 1                   
