# Well file for MODFLOW, generated by Flopy.
         1         0
         1         0 # stress period 0
         4         1         1 -0.500000
         1         0 # stress period 1
         4         1         1  0.500000
