# PCG for MODFLOW-2005.
1000 100 1 0
0.001 0.1 0.99 0 1 0 1.0 
