begin options
  PRINT_OPTION ALL
  CSV_OUTPUT FILEOUT 2models.ims.csv
end options

begin nonlinear
	outer_hclose 1.e-8
	outer_maximum 50 
	under_relaxation none
end nonlinear

begin linear
	inner_hclose 1.0e-8
	inner_rclose 0.01
	inner_maximum 100
	linear_acceleration cg
	scaling_method none
	REORDERING_METHOD none
	relaxation_factor 0.97
end linear

