begin options
  print_option all
  csv_inner_output fileout 2models.inner.ims.csv
  csv_outer_output fileout 2models.outer.ims.csv
end options

begin nonlinear
	outer_dvclose 1.e-8
	outer_maximum 50
	under_relaxation none
end nonlinear

begin linear
	inner_dvclose 1.0e-8
	inner_rclose 0.01
	inner_maximum 100
	linear_acceleration cg
	scaling_method none
	reordering_method none
	relaxation_factor 0.97
end linear

