# NWT for MODFLOW-NWT, generated by Flopy.
   1.0e-06   1.0e+00       500   1.0e-05         2         1         1 SPECIFIED CONTINUE        0.7    0.008  0.05   0.0   1 20 2. 0.6
         2         0         3         7         0         0         1    0.0001    1.e-6        200
