# Unstructured discretization file for MODFLOW-USG
begin options
  LENGTH_UNITS meters
end options

begin dimensions
  nodes 7
  nja 27
end dimensions

BEGIN GRIDDATA
  top
    INTERNAL  FACTOR  1 IPRN 1
    1 1 1 .6666666666666666 .3333333333333333 1 1
  bot
    INTERNAL  FACTOR  1 IPRN 1
    0 0 .6666666666666666 .3333333333333333 0 0 0
  area
    constant 1
END GRIDDATA

begin connectiondata
  ihc
    INTERNAL  FACTOR  1 IPRN 1
    1 2
    2 2 2 2 2
    3 2 0 2
    4 2 0 0 2
    5 2 0 2
    6 2 2 2 2
    7 2
  iac
    INTERNAL  FACTOR  1 IPRN 1
    2 5 4 5 4 5 2
  ja
    INTERNAL  FACTOR  1 IPRN 1
    1 2
    2 1 3 4 5
    3 2 4 6
    4 2 3 5 6
    5 2 4 6
    6 3 4 5 7
    7 6
  cl12
    INTERNAL  FACTOR  1 IPRN 1
    1 .5
    2 .5 .5 .5 .5
    3 .5 .16 0.5
    4 .5 .16 .16 .5
    5 .5 .16 .5
    6 .5 .5 .5 .5
    7 .5
  hwva
    INTERNAL  FACTOR  1 IPRN 1
    1 1.
    2 1. 1. 1. 1.
    3 1. 1. 1.
    4 1. 1. 1. 1.
    5 1. 1. 1.
    6 1. 1. 1. 1.
    7 1.
end connectiondata
