begin options
  SAVE_FLOWS
  PRINT_FLOWS
end options

BEGIN GRIDDATA
  ICELLTYPE
    CONSTANT 1
  K
    CONSTANT 1.
  K33
    CONSTANT 1.
END GRIDDATA