# square lake                                         
begin dimensions                                      
  nrow 7                                         
  ncol 5                                         
end dimensions                                        
                                                      
begin table                                           
#    stage     volume      sarea     warea   radius                           
  4.000000   0.000000  0.000000   0.000000 0.000000
  5.000000   0.727221  2.181662   3.407864 0.833333
  6.000000   5.817764  8.726646  13.631457 1.666667
  7.000000  19.634954 19.634954  30.670779 2.500000
  8.000000  46.542113 34.906585  54.525829 3.333333
  9.000000  90.902565 54.541539  85.196608 4.166667
 10.000000 157.079633 78.539816 122.683115 5.000000                       
end table                                              
