begin options
  digits 10
  print_input
end options

begin Continuous FILEOUT lake0_embedded.lak.csv
  L1STAGE  STAGE  1
  L1VOL    VOLUME 1
  L1SA     SURFACE-AREA  1
  L1WA     WETTED-AREA  1 ELAKE01
  L1CONDUCTANCE   CONDUCTANCE   1 ELAKE01
  L2STAGE  STAGE  2
  L2VOL    VOLUME ELAKE02
  L2SA     SURFACE-AREA  ELAKE02
  L2WA     WETTED-AREA  2 ELAKE02
  L2CONDUCTANCE   CONDUCTANCE   2 ELAKE02
  L3STAGE  STAGE  3
  L3VOL    VOLUME ELAKE03
  L3SA     SURFACE-AREA  ELAKE03
  L3WA     WETTED-AREA  3 ELAKE03
  L3CONDUCTANCE   CONDUCTANCE   3 ELAKE03
end Continuous
