#Valley aquifer with 2 sand layers separated by silt.  Stress period 1 is natur
# conditions.  Stress period 2 adds wells.
begin options
end options

BEGIN GRIDDATA
  strt LAYERED
    INTERNAL  FACTOR               1 IPRN  -1 #strt Layer 1                  
       6.000000E+02   6.000000E+02   6.000000E+02   6.000000E+02   6.000000E+02   6.000000E+02   6.000000E+02   6.000000E+02   6.000000E+02   6.000000E+02   6.000000E+02   6.000000E+02   6.000000E+02   6.000000E+02   6.000000E+02   6.000000E+02   6.000000E+02   6.000000E+02   6.000000E+02   6.000000E+02   6.000000E+02   6.000000E+02   6.000000E+02   6.000000E+02   6.000000E+02   6.000000E+02   6.000000E+02   6.000000E+02   6.000000E+02   6.000000E+02   6.000000E+02   6.000000E+02   6.000000E+02   6.000000E+02   6.000000E+02   6.000000E+02   6.000000E+02   6.000000E+02   6.000000E+02   6.000000E+02   6.000000E+02   6.000000E+02   6.000000E+02   6.000000E+02   6.000000E+02   6.000000E+02   6.000000E+02   6.000000E+02   6.000000E+02   6.000000E+02   6.000000E+02   6.000000E+02   6.000000E+02   6.000000E+02   6.000000E+02   6.000000E+02   6.000000E+02   6.000000E+02   6.000000E+02   6.000000E+02   6.000000E+02   6.000000E+02   6.000000E+02   6.000000E+02   6.000000E+02   6.000000E+02   6.000000E+02   6.000000E+02   6.000000E+02   6.000000E+02   6.000000E+02   6.000000E+02   6.000000E+02   6.000000E+02   6.000000E+02   6.000000E+02   6.000000E+02   6.000000E+02   6.000000E+02   6.000000E+02   6.000000E+02   6.000000E+02   6.000000E+02   6.000000E+02   6.000000E+02   6.000000E+02   6.000000E+02   6.000000E+02   6.000000E+02   6.000000E+02   6.000000E+02   6.000000E+02   6.000000E+02   6.000000E+02   6.000000E+02   6.000000E+02   6.000000E+02   6.000000E+02   6.000000E+02   6.000000E+02   6.000000E+02   6.000000E+02   6.000000E+02   6.000000E+02   6.000000E+02   6.000000E+02   6.000000E+02   6.000000E+02   6.000000E+02   6.000000E+02   6.000000E+02   6.000000E+02   6.000000E+02   6.000000E+02   6.000000E+02   6.000000E+02   6.000000E+02   6.000000E+02   6.000000E+02   6.000000E+02   6.000000E+02   6.000000E+02   6.000000E+02   6.000000E+02   6.000000E+02   6.000000E+02   6.000000E+02   6.000000E+02   6.000000E+02   6.000000E+02   6.000000E+02   6.000000E+02   6.000000E+02   6.000000E+02   6.000000E+02   6.000000E+02   6.000000E+02   6.000000E+02   6.000000E+02   6.000000E+02   6.000000E+02   6.000000E+02   6.000000E+02   6.000000E+02   6.000000E+02   6.000000E+02   6.000000E+02   6.000000E+02   6.000000E+02   6.000000E+02   6.000000E+02   6.000000E+02   6.000000E+02   6.000000E+02   6.000000E+02   6.000000E+02   6.000000E+02   6.000000E+02   6.000000E+02   6.000000E+02   6.000000E+02   6.000000E+02   6.000000E+02   6.000000E+02   6.000000E+02   6.000000E+02   6.000000E+02   6.000000E+02   6.000000E+02   6.000000E+02   6.000000E+02   6.000000E+02   6.000000E+02   6.000000E+02   6.000000E+02   6.000000E+02   6.000000E+02   6.000000E+02   6.000000E+02   6.000000E+02   6.000000E+02   6.000000E+02   6.000000E+02   6.000000E+02   6.000000E+02   6.000000E+02   6.000000E+02   6.000000E+02   6.000000E+02   6.000000E+02   6.000000E+02   6.000000E+02   6.000000E+02   6.000000E+02   6.000000E+02   6.000000E+02   6.000000E+02   6.000000E+02   6.000000E+02   6.000000E+02   6.000000E+02   6.000000E+02   6.000000E+02   6.000000E+02   6.000000E+02   6.000000E+02   6.000000E+02   6.000000E+02   6.000000E+02   6.000000E+02   6.000000E+02   6.000000E+02   6.000000E+02   6.000000E+02   6.000000E+02   6.000000E+02   6.000000E+02   6.000000E+02   6.000000E+02   6.000000E+02   6.000000E+02   6.000000E+02   6.000000E+02   6.000000E+02   6.000000E+02   6.000000E+02   6.000000E+02   6.000000E+02   6.000000E+02   6.000000E+02   6.000000E+02   6.000000E+02   6.000000E+02   6.000000E+02   6.000000E+02   6.000000E+02   6.000000E+02   6.000000E+02   6.000000E+02   6.000000E+02   6.000000E+02   6.000000E+02   6.000000E+02   6.000000E+02   6.000000E+02   6.000000E+02   6.000000E+02   6.000000E+02   6.000000E+02   6.000000E+02   6.000000E+02   6.000000E+02   6.000000E+02   6.000000E+02   6.000000E+02   6.000000E+02   6.000000E+02   6.000000E+02   6.000000E+02   6.000000E+02   6.000000E+02   6.000000E+02   6.000000E+02   6.000000E+02   6.000000E+02   6.000000E+02   6.000000E+02   6.000000E+02   6.000000E+02   6.000000E+02   6.000000E+02   6.000000E+02   6.000000E+02   6.000000E+02   6.000000E+02   6.000000E+02   6.000000E+02   6.000000E+02   6.000000E+02   6.000000E+02   6.000000E+02   6.000000E+02   6.000000E+02   6.000000E+02   6.000000E+02   6.000000E+02   6.000000E+02   6.000000E+02   6.000000E+02   6.000000E+02   6.000000E+02   6.000000E+02   6.000000E+02   6.000000E+02   6.000000E+02   6.000000E+02   6.000000E+02   6.000000E+02   6.000000E+02   6.000000E+02   6.000000E+02   6.000000E+02   6.000000E+02   6.000000E+02   6.000000E+02   6.000000E+02   6.000000E+02   6.000000E+02   6.000000E+02   6.000000E+02   6.000000E+02   6.000000E+02   6.000000E+02   6.000000E+02   6.000000E+02   6.000000E+02   6.000000E+02   6.000000E+02   6.000000E+02   6.000000E+02   6.000000E+02   6.000000E+02   6.000000E+02   6.000000E+02   6.000000E+02   6.000000E+02   6.000000E+02   6.000000E+02   6.000000E+02   6.000000E+02   6.000000E+02   6.000000E+02   6.000000E+02   6.000000E+02   6.000000E+02   6.000000E+02   6.000000E+02   6.000000E+02   6.000000E+02   6.000000E+02   6.000000E+02   6.000000E+02   6.000000E+02   6.000000E+02   6.000000E+02   6.000000E+02   6.000000E+02   6.000000E+02   6.000000E+02   6.000000E+02   6.000000E+02   6.000000E+02   6.000000E+02   6.000000E+02   6.000000E+02   6.000000E+02   6.000000E+02   6.000000E+02   6.000000E+02   6.000000E+02   6.000000E+02   6.000000E+02   6.000000E+02   6.000000E+02   6.000000E+02   6.000000E+02   6.000000E+02   6.000000E+02   6.000000E+02   6.000000E+02   6.000000E+02   6.000000E+02   6.000000E+02   6.000000E+02   6.000000E+02   6.000000E+02   6.000000E+02   6.000000E+02   6.000000E+02   6.000000E+02   6.000000E+02   6.000000E+02   6.000000E+02   6.000000E+02   6.000000E+02   6.000000E+02   6.000000E+02   6.000000E+02   6.000000E+02   6.000000E+02   6.000000E+02   6.000000E+02   6.000000E+02   6.000000E+02   6.000000E+02   6.000000E+02   6.000000E+02   6.000000E+02   6.000000E+02   6.000000E+02
    INTERNAL  FACTOR               1 IPRN  -1 #strt Layer 2                  
       6.000000E+02   6.000000E+02   6.000000E+02   6.000000E+02   6.000000E+02   6.000000E+02   6.000000E+02   6.000000E+02   6.000000E+02   6.000000E+02   6.000000E+02   6.000000E+02   6.000000E+02   6.000000E+02   6.000000E+02   6.000000E+02   6.000000E+02   6.000000E+02   6.000000E+02   6.000000E+02   6.000000E+02   6.000000E+02   6.000000E+02   6.000000E+02   6.000000E+02   6.000000E+02   6.000000E+02   6.000000E+02   6.000000E+02   6.000000E+02   6.000000E+02   6.000000E+02   6.000000E+02   6.000000E+02   6.000000E+02   6.000000E+02   6.000000E+02   6.000000E+02   6.000000E+02   6.000000E+02   6.000000E+02   6.000000E+02   6.000000E+02   6.000000E+02   6.000000E+02   6.000000E+02   6.000000E+02   6.000000E+02   6.000000E+02   6.000000E+02   6.000000E+02   6.000000E+02   6.000000E+02   6.000000E+02   6.000000E+02   6.000000E+02   6.000000E+02   6.000000E+02   6.000000E+02   6.000000E+02   6.000000E+02   6.000000E+02   6.000000E+02   6.000000E+02   6.000000E+02   6.000000E+02   6.000000E+02   6.000000E+02   6.000000E+02   6.000000E+02   6.000000E+02   6.000000E+02   6.000000E+02   6.000000E+02   6.000000E+02   6.000000E+02   6.000000E+02   6.000000E+02   6.000000E+02   6.000000E+02   6.000000E+02   6.000000E+02   6.000000E+02   6.000000E+02   6.000000E+02   6.000000E+02   6.000000E+02   6.000000E+02   6.000000E+02   6.000000E+02   6.000000E+02   6.000000E+02   6.000000E+02   6.000000E+02   6.000000E+02   6.000000E+02   6.000000E+02   6.000000E+02   6.000000E+02   6.000000E+02   6.000000E+02   6.000000E+02   6.000000E+02   6.000000E+02   6.000000E+02   6.000000E+02   6.000000E+02   6.000000E+02   6.000000E+02   6.000000E+02   6.000000E+02   6.000000E+02   6.000000E+02   6.000000E+02   6.000000E+02   6.000000E+02   6.000000E+02   6.000000E+02   6.000000E+02   6.000000E+02   6.000000E+02   6.000000E+02   6.000000E+02   6.000000E+02   6.000000E+02   6.000000E+02   6.000000E+02   6.000000E+02   6.000000E+02   6.000000E+02   6.000000E+02   6.000000E+02   6.000000E+02   6.000000E+02   6.000000E+02   6.000000E+02   6.000000E+02   6.000000E+02   6.000000E+02   6.000000E+02   6.000000E+02   6.000000E+02   6.000000E+02   6.000000E+02   6.000000E+02   6.000000E+02   6.000000E+02   6.000000E+02   6.000000E+02   6.000000E+02   6.000000E+02   6.000000E+02   6.000000E+02   6.000000E+02   6.000000E+02   6.000000E+02   6.000000E+02   6.000000E+02   6.000000E+02   6.000000E+02   6.000000E+02   6.000000E+02   6.000000E+02   6.000000E+02   6.000000E+02   6.000000E+02   6.000000E+02   6.000000E+02   6.000000E+02   6.000000E+02   6.000000E+02   6.000000E+02   6.000000E+02   6.000000E+02   6.000000E+02   6.000000E+02   6.000000E+02   6.000000E+02   6.000000E+02   6.000000E+02   6.000000E+02   6.000000E+02   6.000000E+02   6.000000E+02   6.000000E+02   6.000000E+02   6.000000E+02   6.000000E+02   6.000000E+02   6.000000E+02   6.000000E+02   6.000000E+02   6.000000E+02   6.000000E+02   6.000000E+02   6.000000E+02   6.000000E+02   6.000000E+02   6.000000E+02   6.000000E+02   6.000000E+02   6.000000E+02   6.000000E+02   6.000000E+02   6.000000E+02   6.000000E+02   6.000000E+02   6.000000E+02   6.000000E+02   6.000000E+02   6.000000E+02   6.000000E+02   6.000000E+02   6.000000E+02   6.000000E+02   6.000000E+02   6.000000E+02   6.000000E+02   6.000000E+02   6.000000E+02   6.000000E+02   6.000000E+02   6.000000E+02   6.000000E+02   6.000000E+02   6.000000E+02   6.000000E+02   6.000000E+02   6.000000E+02   6.000000E+02   6.000000E+02   6.000000E+02   6.000000E+02   6.000000E+02   6.000000E+02   6.000000E+02   6.000000E+02   6.000000E+02   6.000000E+02   6.000000E+02   6.000000E+02   6.000000E+02   6.000000E+02   6.000000E+02   6.000000E+02   6.000000E+02   6.000000E+02   6.000000E+02   6.000000E+02   6.000000E+02   6.000000E+02   6.000000E+02   6.000000E+02   6.000000E+02   6.000000E+02   6.000000E+02   6.000000E+02   6.000000E+02   6.000000E+02   6.000000E+02   6.000000E+02   6.000000E+02   6.000000E+02   6.000000E+02   6.000000E+02   6.000000E+02   6.000000E+02   6.000000E+02   6.000000E+02   6.000000E+02   6.000000E+02   6.000000E+02   6.000000E+02   6.000000E+02   6.000000E+02   6.000000E+02   6.000000E+02   6.000000E+02   6.000000E+02   6.000000E+02   6.000000E+02   6.000000E+02   6.000000E+02   6.000000E+02   6.000000E+02   6.000000E+02   6.000000E+02   6.000000E+02   6.000000E+02   6.000000E+02   6.000000E+02   6.000000E+02   6.000000E+02   6.000000E+02   6.000000E+02   6.000000E+02   6.000000E+02   6.000000E+02   6.000000E+02   6.000000E+02   6.000000E+02   6.000000E+02   6.000000E+02   6.000000E+02   6.000000E+02   6.000000E+02   6.000000E+02   6.000000E+02   6.000000E+02   6.000000E+02   6.000000E+02   6.000000E+02   6.000000E+02   6.000000E+02   6.000000E+02   6.000000E+02   6.000000E+02   6.000000E+02   6.000000E+02   6.000000E+02   6.000000E+02   6.000000E+02   6.000000E+02   6.000000E+02   6.000000E+02   6.000000E+02   6.000000E+02   6.000000E+02   6.000000E+02   6.000000E+02   6.000000E+02   6.000000E+02   6.000000E+02   6.000000E+02   6.000000E+02   6.000000E+02   6.000000E+02   6.000000E+02   6.000000E+02   6.000000E+02   6.000000E+02   6.000000E+02   6.000000E+02   6.000000E+02   6.000000E+02   6.000000E+02   6.000000E+02   6.000000E+02   6.000000E+02   6.000000E+02   6.000000E+02   6.000000E+02   6.000000E+02   6.000000E+02   6.000000E+02   6.000000E+02   6.000000E+02   6.000000E+02   6.000000E+02   6.000000E+02   6.000000E+02   6.000000E+02   6.000000E+02   6.000000E+02   6.000000E+02   6.000000E+02   6.000000E+02   6.000000E+02   6.000000E+02   6.000000E+02   6.000000E+02   6.000000E+02   6.000000E+02   6.000000E+02   6.000000E+02   6.000000E+02   6.000000E+02   6.000000E+02   6.000000E+02   6.000000E+02   6.000000E+02   6.000000E+02   6.000000E+02   6.000000E+02   6.000000E+02   6.000000E+02   6.000000E+02   6.000000E+02   6.000000E+02   6.000000E+02   6.000000E+02   6.000000E+02   6.000000E+02   6.000000E+02   6.000000E+02   6.000000E+02   6.000000E+02   6.000000E+02   6.000000E+02   6.000000E+02
    INTERNAL  FACTOR               1 IPRN  -1 #strt Layer 3                  
       6.000000E+02   6.000000E+02   6.000000E+02   6.000000E+02   6.000000E+02   6.000000E+02   6.000000E+02   6.000000E+02   6.000000E+02   6.000000E+02   6.000000E+02   6.000000E+02   6.000000E+02   6.000000E+02   6.000000E+02   6.000000E+02   6.000000E+02   6.000000E+02   6.000000E+02   6.000000E+02   6.000000E+02   6.000000E+02   6.000000E+02   6.000000E+02   6.000000E+02   6.000000E+02   6.000000E+02   6.000000E+02   6.000000E+02   6.000000E+02   6.000000E+02   6.000000E+02   6.000000E+02   6.000000E+02   6.000000E+02   6.000000E+02   6.000000E+02   6.000000E+02   6.000000E+02   6.000000E+02   6.000000E+02   6.000000E+02   6.000000E+02   6.000000E+02   6.000000E+02   6.000000E+02   6.000000E+02   6.000000E+02   6.000000E+02   6.000000E+02   6.000000E+02   6.000000E+02   6.000000E+02   6.000000E+02   6.000000E+02   6.000000E+02   6.000000E+02   6.000000E+02   6.000000E+02   6.000000E+02   6.000000E+02   6.000000E+02   6.000000E+02   6.000000E+02   6.000000E+02   6.000000E+02   6.000000E+02   6.000000E+02   6.000000E+02   6.000000E+02   6.000000E+02   6.000000E+02   6.000000E+02   6.000000E+02   6.000000E+02   6.000000E+02   6.000000E+02   6.000000E+02   6.000000E+02   6.000000E+02   6.000000E+02   6.000000E+02   6.000000E+02   6.000000E+02   6.000000E+02   6.000000E+02   6.000000E+02   6.000000E+02   6.000000E+02   6.000000E+02   6.000000E+02   6.000000E+02   6.000000E+02   6.000000E+02   6.000000E+02   6.000000E+02   6.000000E+02   6.000000E+02   6.000000E+02   6.000000E+02   6.000000E+02   6.000000E+02   6.000000E+02   6.000000E+02   6.000000E+02   6.000000E+02   6.000000E+02   6.000000E+02   6.000000E+02   6.000000E+02   6.000000E+02   6.000000E+02   6.000000E+02   6.000000E+02   6.000000E+02   6.000000E+02   6.000000E+02   6.000000E+02   6.000000E+02   6.000000E+02   6.000000E+02   6.000000E+02   6.000000E+02   6.000000E+02   6.000000E+02   6.000000E+02   6.000000E+02   6.000000E+02   6.000000E+02   6.000000E+02   6.000000E+02   6.000000E+02   6.000000E+02   6.000000E+02   6.000000E+02   6.000000E+02   6.000000E+02   6.000000E+02   6.000000E+02   6.000000E+02   6.000000E+02   6.000000E+02   6.000000E+02   6.000000E+02   6.000000E+02   6.000000E+02   6.000000E+02   6.000000E+02   6.000000E+02   6.000000E+02   6.000000E+02   6.000000E+02   6.000000E+02   6.000000E+02   6.000000E+02   6.000000E+02   6.000000E+02   6.000000E+02   6.000000E+02   6.000000E+02   6.000000E+02   6.000000E+02   6.000000E+02   6.000000E+02   6.000000E+02   6.000000E+02   6.000000E+02   6.000000E+02   6.000000E+02   6.000000E+02   6.000000E+02   6.000000E+02   6.000000E+02   6.000000E+02   6.000000E+02   6.000000E+02   6.000000E+02   6.000000E+02   6.000000E+02   6.000000E+02   6.000000E+02   6.000000E+02   6.000000E+02   6.000000E+02   6.000000E+02   6.000000E+02   6.000000E+02   6.000000E+02   6.000000E+02   6.000000E+02   6.000000E+02   6.000000E+02   6.000000E+02   6.000000E+02   6.000000E+02   6.000000E+02   6.000000E+02   6.000000E+02   6.000000E+02   6.000000E+02   6.000000E+02   6.000000E+02   6.000000E+02   6.000000E+02   6.000000E+02   6.000000E+02   6.000000E+02   6.000000E+02   6.000000E+02   6.000000E+02   6.000000E+02   6.000000E+02   6.000000E+02   6.000000E+02   6.000000E+02   6.000000E+02   6.000000E+02   6.000000E+02   6.000000E+02   6.000000E+02   6.000000E+02   6.000000E+02   6.000000E+02   6.000000E+02   6.000000E+02   6.000000E+02   6.000000E+02   6.000000E+02   6.000000E+02   6.000000E+02   6.000000E+02   6.000000E+02   6.000000E+02   6.000000E+02   6.000000E+02   6.000000E+02   6.000000E+02   6.000000E+02   6.000000E+02   6.000000E+02   6.000000E+02   6.000000E+02   6.000000E+02   6.000000E+02   6.000000E+02   6.000000E+02   6.000000E+02   6.000000E+02   6.000000E+02   6.000000E+02   6.000000E+02   6.000000E+02   6.000000E+02   6.000000E+02   6.000000E+02   6.000000E+02   6.000000E+02   6.000000E+02   6.000000E+02   6.000000E+02   6.000000E+02   6.000000E+02   6.000000E+02   6.000000E+02   6.000000E+02   6.000000E+02   6.000000E+02   6.000000E+02   6.000000E+02   6.000000E+02   6.000000E+02   6.000000E+02   6.000000E+02   6.000000E+02   6.000000E+02   6.000000E+02   6.000000E+02   6.000000E+02   6.000000E+02   6.000000E+02   6.000000E+02   6.000000E+02   6.000000E+02   6.000000E+02   6.000000E+02   6.000000E+02   6.000000E+02   6.000000E+02   6.000000E+02   6.000000E+02   6.000000E+02   6.000000E+02   6.000000E+02   6.000000E+02   6.000000E+02   6.000000E+02   6.000000E+02   6.000000E+02   6.000000E+02   6.000000E+02   6.000000E+02   6.000000E+02   6.000000E+02   6.000000E+02   6.000000E+02   6.000000E+02   6.000000E+02   6.000000E+02   6.000000E+02   6.000000E+02   6.000000E+02   6.000000E+02   6.000000E+02   6.000000E+02   6.000000E+02   6.000000E+02   6.000000E+02   6.000000E+02   6.000000E+02   6.000000E+02   6.000000E+02   6.000000E+02   6.000000E+02   6.000000E+02   6.000000E+02   6.000000E+02   6.000000E+02   6.000000E+02   6.000000E+02   6.000000E+02   6.000000E+02   6.000000E+02   6.000000E+02   6.000000E+02   6.000000E+02   6.000000E+02   6.000000E+02   6.000000E+02   6.000000E+02   6.000000E+02   6.000000E+02   6.000000E+02   6.000000E+02   6.000000E+02   6.000000E+02   6.000000E+02   6.000000E+02   6.000000E+02   6.000000E+02   6.000000E+02   6.000000E+02   6.000000E+02   6.000000E+02   6.000000E+02   6.000000E+02   6.000000E+02   6.000000E+02   6.000000E+02   6.000000E+02   6.000000E+02   6.000000E+02   6.000000E+02   6.000000E+02   6.000000E+02   6.000000E+02   6.000000E+02   6.000000E+02   6.000000E+02   6.000000E+02   6.000000E+02   6.000000E+02   6.000000E+02   6.000000E+02   6.000000E+02   6.000000E+02   6.000000E+02   6.000000E+02   6.000000E+02   6.000000E+02   6.000000E+02   6.000000E+02   6.000000E+02   6.000000E+02   6.000000E+02   6.000000E+02   6.000000E+02   6.000000E+02   6.000000E+02   6.000000E+02   6.000000E+02   6.000000E+02   6.000000E+02   6.000000E+02   6.000000E+02   6.000000E+02   6.000000E+02   6.000000E+02   6.000000E+02   6.000000E+02   6.000000E+02
    INTERNAL  FACTOR               1 IPRN  -1 #strt Layer 4                  
       6.000000E+02   6.000000E+02   6.000000E+02   6.000000E+02   6.000000E+02   6.000000E+02   6.000000E+02   6.000000E+02   6.000000E+02   6.000000E+02   6.000000E+02   6.000000E+02   6.000000E+02   6.000000E+02   6.000000E+02   6.000000E+02   6.000000E+02   6.000000E+02   6.000000E+02   6.000000E+02   6.000000E+02   6.000000E+02   6.000000E+02   6.000000E+02   6.000000E+02   6.000000E+02   6.000000E+02   6.000000E+02   6.000000E+02   6.000000E+02   6.000000E+02   6.000000E+02   6.000000E+02   6.000000E+02   6.000000E+02   6.000000E+02   6.000000E+02   6.000000E+02   6.000000E+02   6.000000E+02   6.000000E+02   6.000000E+02   6.000000E+02   6.000000E+02   6.000000E+02   6.000000E+02   6.000000E+02   6.000000E+02   6.000000E+02   6.000000E+02   6.000000E+02   6.000000E+02   6.000000E+02   6.000000E+02   6.000000E+02   6.000000E+02   6.000000E+02   6.000000E+02   6.000000E+02   6.000000E+02   6.000000E+02   6.000000E+02   6.000000E+02   6.000000E+02   6.000000E+02   6.000000E+02   6.000000E+02   6.000000E+02   6.000000E+02   6.000000E+02   6.000000E+02   6.000000E+02   6.000000E+02   6.000000E+02   6.000000E+02   6.000000E+02   6.000000E+02   6.000000E+02   6.000000E+02   6.000000E+02   6.000000E+02   6.000000E+02   6.000000E+02   6.000000E+02   6.000000E+02   6.000000E+02   6.000000E+02   6.000000E+02   6.000000E+02   6.000000E+02   6.000000E+02   6.000000E+02   6.000000E+02   6.000000E+02   6.000000E+02   6.000000E+02   6.000000E+02   6.000000E+02   6.000000E+02   6.000000E+02   6.000000E+02   6.000000E+02   6.000000E+02   6.000000E+02   6.000000E+02   6.000000E+02   6.000000E+02   6.000000E+02   6.000000E+02   6.000000E+02   6.000000E+02   6.000000E+02   6.000000E+02   6.000000E+02   6.000000E+02   6.000000E+02   6.000000E+02   6.000000E+02   6.000000E+02   6.000000E+02   6.000000E+02   6.000000E+02   6.000000E+02   6.000000E+02   6.000000E+02   6.000000E+02   6.000000E+02   6.000000E+02   6.000000E+02   6.000000E+02   6.000000E+02   6.000000E+02   6.000000E+02   6.000000E+02   6.000000E+02   6.000000E+02   6.000000E+02   6.000000E+02   6.000000E+02   6.000000E+02   6.000000E+02   6.000000E+02   6.000000E+02   6.000000E+02   6.000000E+02   6.000000E+02   6.000000E+02   6.000000E+02   6.000000E+02   6.000000E+02   6.000000E+02   6.000000E+02   6.000000E+02   6.000000E+02   6.000000E+02   6.000000E+02   6.000000E+02   6.000000E+02   6.000000E+02   6.000000E+02   6.000000E+02   6.000000E+02   6.000000E+02   6.000000E+02   6.000000E+02   6.000000E+02   6.000000E+02   6.000000E+02   6.000000E+02   6.000000E+02   6.000000E+02   6.000000E+02   6.000000E+02   6.000000E+02   6.000000E+02   6.000000E+02   6.000000E+02   6.000000E+02   6.000000E+02   6.000000E+02   6.000000E+02   6.000000E+02   6.000000E+02   6.000000E+02   6.000000E+02   6.000000E+02   6.000000E+02   6.000000E+02   6.000000E+02   6.000000E+02   6.000000E+02   6.000000E+02   6.000000E+02   6.000000E+02   6.000000E+02   6.000000E+02   6.000000E+02   6.000000E+02   6.000000E+02   6.000000E+02   6.000000E+02   6.000000E+02   6.000000E+02   6.000000E+02   6.000000E+02   6.000000E+02   6.000000E+02   6.000000E+02   6.000000E+02   6.000000E+02   6.000000E+02   6.000000E+02   6.000000E+02   6.000000E+02   6.000000E+02   6.000000E+02   6.000000E+02   6.000000E+02   6.000000E+02   6.000000E+02   6.000000E+02   6.000000E+02   6.000000E+02   6.000000E+02   6.000000E+02   6.000000E+02   6.000000E+02   6.000000E+02   6.000000E+02   6.000000E+02   6.000000E+02   6.000000E+02   6.000000E+02   6.000000E+02   6.000000E+02   6.000000E+02   6.000000E+02   6.000000E+02   6.000000E+02   6.000000E+02   6.000000E+02   6.000000E+02   6.000000E+02   6.000000E+02   6.000000E+02   6.000000E+02   6.000000E+02   6.000000E+02   6.000000E+02   6.000000E+02   6.000000E+02   6.000000E+02   6.000000E+02   6.000000E+02   6.000000E+02   6.000000E+02   6.000000E+02   6.000000E+02   6.000000E+02   6.000000E+02   6.000000E+02   6.000000E+02   6.000000E+02   6.000000E+02   6.000000E+02   6.000000E+02   6.000000E+02   6.000000E+02   6.000000E+02   6.000000E+02   6.000000E+02   6.000000E+02   6.000000E+02   6.000000E+02   6.000000E+02   6.000000E+02   6.000000E+02   6.000000E+02   6.000000E+02   6.000000E+02   6.000000E+02   6.000000E+02   6.000000E+02   6.000000E+02   6.000000E+02   6.000000E+02   6.000000E+02   6.000000E+02   6.000000E+02   6.000000E+02   6.000000E+02   6.000000E+02   6.000000E+02   6.000000E+02   6.000000E+02   6.000000E+02   6.000000E+02   6.000000E+02   6.000000E+02   6.000000E+02   6.000000E+02   6.000000E+02   6.000000E+02   6.000000E+02   6.000000E+02   6.000000E+02   6.000000E+02   6.000000E+02   6.000000E+02   6.000000E+02   6.000000E+02   6.000000E+02   6.000000E+02   6.000000E+02   6.000000E+02   6.000000E+02   6.000000E+02   6.000000E+02   6.000000E+02   6.000000E+02   6.000000E+02   6.000000E+02   6.000000E+02   6.000000E+02   6.000000E+02   6.000000E+02   6.000000E+02   6.000000E+02   6.000000E+02   6.000000E+02   6.000000E+02   6.000000E+02   6.000000E+02   6.000000E+02   6.000000E+02   6.000000E+02   6.000000E+02   6.000000E+02   6.000000E+02   6.000000E+02   6.000000E+02   6.000000E+02   6.000000E+02   6.000000E+02   6.000000E+02   6.000000E+02   6.000000E+02   6.000000E+02   6.000000E+02   6.000000E+02   6.000000E+02   6.000000E+02   6.000000E+02   6.000000E+02   6.000000E+02   6.000000E+02   6.000000E+02   6.000000E+02   6.000000E+02   6.000000E+02   6.000000E+02   6.000000E+02   6.000000E+02   6.000000E+02   6.000000E+02   6.000000E+02   6.000000E+02   6.000000E+02   6.000000E+02   6.000000E+02   6.000000E+02   6.000000E+02   6.000000E+02   6.000000E+02   6.000000E+02   6.000000E+02   6.000000E+02   6.000000E+02   6.000000E+02   6.000000E+02   6.000000E+02   6.000000E+02   6.000000E+02   6.000000E+02   6.000000E+02   6.000000E+02   6.000000E+02   6.000000E+02   6.000000E+02   6.000000E+02   6.000000E+02   6.000000E+02   6.000000E+02   6.000000E+02   6.000000E+02   6.000000E+02   6.000000E+02   6.000000E+02   6.000000E+02   6.000000E+02
    INTERNAL  FACTOR               1 IPRN  -1 #strt Layer 5                  