begin options
  #PRINT_INPUT
  PRINT_FLOWS
  SAVE_FLOWS
end options

begin dimensions
  MAXBOUND 36
end dimensions

begin period 1
49 1 1    800.
50 1 1    800.
51 1 1    800.
52 1 1    800.
53 1 1    800.
54 1 1    800.
55 1 1    800.
56 1 1    800.
57 1 1    800.
58 1 1    800.
59 1 1    800.
60 1 1    800.
61 1 1    800.
62 1 1    800.
63 1 1    800.
64 1 1    800.
65 1 1    800.
66 1 1    800.
67 1 1    800.
68 1 1    800.
69 1 1    800.
70 1 1    800.
71 1 1    800.
72 1 1    800.
73 1 1    800.
74 1 1    800.
75 1 1    800.
76 1 1    800.
77 1 1    800.
78 1 1    800.
79 1 1    800.
80 1 1    800.
77 1 400  100.
78 1 400  100.
79 1 400  100.
80 1 400  100.
end period
