begin options
  PRINT_OPTION ALL
  #DEV_NO_PTC
  DEV_PTC_DEL0 12500.
  DEV_PTC_OUTPUT FILEOUT PTC.OUTPUT.OUT
end options

begin nonlinear
	outer_hclose 1.e-4
	outer_maximum 2000 
	under_relaxation dbd
	under_relaxation_theta 0.70
	under_relaxation_kappa 0.08
	under_relaxation_gamma 0.05
	under_relaxation_momentum 0.
	BACKTRACKING_NUMBER 20
	BACKTRACKING_TOLERANCE 2.
	BACKTRACKING_REDUCTION_FACTOR 0.2
	BACKTRACKING_RESIDUAL_LIMIT 5.000000E-04
end nonlinear


begin linear
	inner_hclose 1.0e-5
	inner_rclose 1.0e-4 RELATIVE_RCLOSE
	inner_maximum 100
	linear_acceleration bicgstab
	scaling_method none
	REORDERING_METHOD none
	relaxation_factor 0.0
	NUMBER_ORTHOGONALIZATIONS 2
	PRECONDITIONER_LEVELS 8
	PRECONDITIONER_DROP_TOLERANCE 0.
end linear
