# Discretization file for MODFLOW-2000, generated by Flopy.
         1        75        75         3         4         2
  0
 Constant     264.53 DELR(NCOL)
 Constant     264.53 DELC(NROW)
 Constant      100.0 TOP OF SYSTEM
 Constant       -100 BOTTOM OF LAYER
      1.000000             1  1.000000 SS
   1000.000000            10  1.500000 TR
      1.000000             1  1.000000 SS
