# Well file for MODFLOW-2000, generated by Flopy.
         1        50
         1         0
         1        38        38            0
         1         0
         1        38        38        -1000
         1         0
         1        38        38        -1000
