# Spatial discretization file for MF6
BEGIN OPTIONS
END OPTIONS

BEGIN DIMENSIONS
  NLAY 1
  NROW 51
  NCOL 51
END DIMENSIONS

BEGIN GRIDDATA
  DELR
    CONSTANT  100.00000    
  DELC
    CONSTANT  100.00000    
  TOP
    CONSTANT   0.000000    
  BOTM LAYERED
    CONSTANT  -50.00000    
END GRIDDATA
