# WEL8 input file, prepared by MF5to6 on 9/27/2016 at 10:56:52.

BEGIN Options
  PRINT_INPUT
END Options

BEGIN Dimensions
  MAXBOUND  200
END Dimensions

BEGIN PERIOD 1
         1         1         1        75.
         1         2         1        50.
         1         3         1        50.
         1         4         1        50.
         1         5         1        50.
         1         6         1        50.
         1         7         1        50.
         1         8         1        50.
         1         9         1        50.
         1        10         1        50.
         1        11         1        50.
         1        12         1        50.
         1        13         1        50.
         1        14         1        50.
         1        15         1        50.
         1        16         1        50.
         1        17         1        50.
         1        18         1        50.
         1        19         1        50.
         1        20         1        50.
         1        21         1        50.
         1        22         1        50.
         1        23         1        50.
         1        24         1        50.
         1        25         1        50.
         1        26         1        50.
         1        27         1        50.
         1        28         1        50.
         1        29         1        50.
         1        30         1        50.
         1        31         1        50.
         1        32         1        50.
         1        33         1        50.
         1        34         1        50.
         1        35         1        50.
         1        36         1        50.
         1        37         1        50.
         1        38         1        50.
         1        39         1        50.
         1        40         1        50.
         1        41         1        50.
         1        42         1        50.
         1        43         1        50.
         1        44         1        50.
         1        45         1        50.
         1        46         1        50.
         1        47         1        50.
         1        48         1        50.
         1        49         1        50.
         1        50         1        50.
         1        51         1        25.
         1         1        51        -25.
         1         2        51        -50.
         1         3        51        -50.
         1         4        51        -50.
         1         5        51        -50.
         1         6        51        -50.
         1         7        51        -50.
         1         8        51        -50.
         1         9        51        -50.
         1        10        51        -50.
         1        11        51        -50.
         1        12        51        -50.
         1        13        51        -50.
         1        14        51        -50.
         1        15        51        -50.
         1        16        51        -50.
         1        17        51        -50.
         1        18        51        -50.
         1        19        51        -50.
         1        20        51        -50.
         1        21        51        -50.
         1        22        51        -50.
         1        23        51        -50.
         1        24        51        -50.
         1        25        51        -50.
         1        26        51        -50.
         1        27        51        -50.
         1        28        51        -50.
         1        29        51        -50.
         1        30        51        -50.
         1        31        51        -50.
         1        32        51        -50.
         1        33        51        -50.
         1        34        51        -50.
         1        35        51        -50.
         1        36        51        -50.
         1        37        51        -50.
         1        38        51        -50.
         1        39        51        -50.
         1        40        51        -50.
         1        41        51        -50.
         1        42        51        -50.
         1        43        51        -50.
         1        44        51        -50.
         1        45        51        -50.
         1        46        51        -50.
         1        47        51        -50.
         1        48        51        -50.
         1        49        51        -50.
         1        50        51        -50.
         1        51        51        -75.
         1         1         2        25.
         1         1         3        25.
         1         1         4        25.
         1         1         5        25.
         1         1         6        25.
         1         1         7        25.
         1         1         8        25.
         1         1         9        25.
         1         1        10        25.
         1         1        11        25.
         1         1        12        25.
         1         1        13        25.
         1         1        14        25.
         1         1        15        25.
         1         1        16        25.
         1         1        17        25.
         1         1        18        25.
         1         1        19        25.
         1         1        20        25.
         1         1        21        25.
         1         1        22        25.
         1         1        23        25.
         1         1        24        25.
         1         1        25        25.
         1         1        26        25.
         1         1        27        25.
         1         1        28        25.
         1         1        29        25.
         1         1        30        25.
         1         1        31        25.
         1         1        32        25.
         1         1        33        25.
         1         1        34        25.
         1         1        35        25.
         1         1        36        25.
         1         1        37        25.
         1         1        38        25.
         1         1        39        25.
         1         1        40        25.
         1         1        41        25.
         1         1        42        25.
         1         1        43        25.
         1         1        44        25.
         1         1        45        25.
         1         1        46        25.
         1         1        47        25.
         1         1        48        25.
         1         1        49        25.
         1         1        50        25.
         1        51         2        -25.
         1        51         3        -25.
         1        51         4        -25.
         1        51         5        -25.
         1        51         6        -25.
         1        51         7        -25.
         1        51         8        -25.
         1        51         9        -25.
         1        51        10        -25.
         1        51        11        -25.
         1        51        12        -25.
         1        51        13        -25.
         1        51        14        -25.
         1        51        15        -25.
         1        51        16        -25.
         1        51        17        -25.
         1        51        18        -25.
         1        51        19        -25.
         1        51        20        -25.
         1        51        21        -25.
         1        51        22        -25.
         1        51        23        -25.
         1        51        24        -25.
         1        51        25        -25.
         1        51        26        -25.
         1        51        27        -25.
         1        51        28        -25.
         1        51        29        -25.
         1        51        30        -25.
         1        51        31        -25.
         1        51        32        -25.
         1        51        33        -25.
         1        51        34        -25.
         1        51        35        -25.
         1        51        36        -25.
         1        51        37        -25.
         1        51        38        -25.
         1        51        39        -25.
         1        51        40        -25.
         1        51        41        -25.
         1        51        42        -25.
         1        51        43        -25.
         1        51        44        -25.
         1        51        45        -25.
         1        51        46        -25.
         1        51        47        -25.
         1        51        48        -25.
         1        51        49        -25.
         1        51        50        -25.
END PERIOD
