BEGIN OPTIONS
END OPTIONS

BEGIN DIMENSIONS
  NLAY 3
  NROW 15
  NCOL 15
END DIMENSIONS

BEGIN GRIDDATA
  DELR
    CONSTANT 5000.
  DELC
    CONSTANT 5000.
  TOP
    CONSTANT 200.
  BOTM LAYERED
    CONSTANT -200.
    CONSTANT -300.
    CONSTANT -450.
END GRIDDATA
