BEGIN OPTIONS
  BUDGET FILEOUT twri.cbb
  HEAD FILEOUT twri.hds
END OPTIONS

BEGIN PERIOD 1
  PRINT HEAD ALL
  SAVE BUDGET ALL
  SAVE HEAD ALL
END PERIOD
