BEGIN OPTIONS
  SAVE_FLOWS
  VARIABLECV DEWATERED
  PERCHED
END OPTIONS

BEGIN GRIDDATA
  ICELLTYPE LAYERED
    CONSTANT 1
    CONSTANT 0
    CONSTANT 0
  k LAYERED
    CONSTANT 1.E-3
    CONSTANT 1.E-4
    CONSTANT 2.E-4
  K33 LAYERED
    CONSTANT 2.E-8
    CONSTANT 2.E-8
    CONSTANT 2.E-8
END GRIDDATA
