#The OPTIONS block is optional
BEGIN OPTIONS
  PRINT_INPUT
  PRINT_FLOWS
  SAVE_FLOWS
END OPTIONS

#The DIMENSIONS block is required
BEGIN DIMENSIONS
  MAXBOUND 100
END DIMENSIONS

#The following block of constant-head cells will be activated
#for stress period 1.  This block will remain active throughout
#the simulation.
BEGIN PERIOD 1
 
 1 1  1 0.
 1 2  1 0.
 1 3  1 0.
 1 4  1 0.
 1 5  1 0.
 1 6  1 0.
 1 7  1 0.
 1 8  1 0.
 1 9  1 0.
 1 10 1 0.
 1 11 1 0.
 1 12 1 0.
 1 13 1 0.
 1 14 1 0.
 1 15 1 0.

 2 1  1 0.
 2 2  1 0.
 2 3  1 0.
 2 4  1 0.
 2 5  1 0.
 2 6  1 0.
 2 7  1 0.
 2 8  1 0.
 2 9  1 0.
 2 10 1 0.
 2 11 1 0.
 2 12 1 0.
 2 13 1 0.
 2 14 1 0.
 2 15 1 0.
 
 END PERIOD 1