BEGIN OPTIONS
  TIME_UNITS SECONDS
END OPTIONS

BEGIN DIMENSIONS
  NPER 1
END DIMENSIONS

BEGIN PERIODDATA
  8.640E+04         1 1.000E+00
END PERIODDATA