BEGIN OPTIONS
  PRINT_INPUT
  PRINT_FLOWS
  SAVE_FLOWS
END OPTIONS

BEGIN DIMENSIONS
  MAXBOUND 15
END DIMENSIONS

BEGIN PERIOD 1
         3         5        11       -5.
         2         4         6       -5.
         2         6        12       -5.
         1         9         8       -5.
         1         9        10       -5.
         1         9        12       -5.
         1         9        14       -5.
         1        11         8       -5.
         1        11        10       -5.
         1        11        12       -5.
         1        11        14       -5.
         1        13         8       -5.
         1        13        10       -5.
         1        13        12       -5.
         1        13        14       -5.
END PERIOD