BEGIN OPTIONS
  HEAD FILEOUT nwtp3.hds
  BUDGET FILEOUT nwtp3.cbb
END OPTIONS

BEGIN PERIOD 1
  PRINT BUDGET ALL
  SAVE BUDGET ALL
  PRINT HEAD ALL
  SAVE HEAD ALL
END PERIOD
