begin options
  SAVE_FLOWS
  ALTERNATIVE_CELL_AVERAGING AMT-HMK
  DEV_OMEGA 1D-5
end options
#
BEGIN GRIDDATA
  icelltype LAYERED
    constant 1
  k LAYERED
    constant 1.00
  K33
    constant 1.00
END GRIDDATA

