# Simulation name file for MODFLOW-2015 prepared by Mf5to15

BEGIN Options
END Options

BEGIN Timing
  TDIS6  model.tdis
END Timing

BEGIN Models
  GWF6  model.nam  GWF
END Models

BEGIN Exchanges
END Exchanges

BEGIN SOLUTIONGROUP 1
  MXITER  1
  IMS6  model.ims  GWF
END SOLUTIONGROUP
