# sms8 input file, prepared by mf5to15 on 4/10/2015 at 9:04:54.

begin options
  print_option summary
  complexity  simple
end options

begin nonlinear
  outer_dvclose   0.99999997e-05
  outer_maximum  50
  under_relaxation  none
end nonlinear

begin linear
  inner_maximum  30
  inner_dvclose   0.10000000e-05
  inner_rclose   0.99999997e-05
  linear_acceleration  bicgstab
end linear
