BEGIN options
  PRINT_OPTION  summary
  COMPLEXITY  complex
END options

BEGIN nonlinear
  OUTER_HCLOSE  1.00000000E-06
  OUTER_MAXIMUM  200
  UNDER_RELAXATION  none
END nonlinear

BEGIN linear
  INNER_MAXIMUM  100
  INNER_HCLOSE  1.00000000E-06
  inner_rclose       0.00100000
  RELAXATION_FACTOR       0.97000000
  SCALING_METHOD  none
  REORDERING_METHOD  none
END linear

