BEGIN options
  BUDGET  FILEOUT  holly.cbc
  HEAD  FILEOUT  holly.hds
END options

BEGIN period  353
  SAVE  head  all
  SAVE  budget  all
END period  353

