BEGIN options
  SAVE_FLOWS
END options

BEGIN griddata
  icelltype
    CONSTANT  0
  k
    INTERNAL  FACTOR  1.0
      2.47933873E-04
           0.00166667
           0.00111111
           0.00142857
      7.14285707E-04
           0.03000000
      4.16666648E-04
           0.00176471
           0.00107143
           0.00166667
           0.03000000
      5.46448064E-05
           0.03000000
      1.71428561E-04
  k33
    INTERNAL  FACTOR  1.0
           0.03000000
      1.20000000E-05
      1.20000000E-05
      1.20000000E-05
           0.03000000
           0.03000000
           0.03000000
      1.50000000E-05
      1.50000000E-05
      1.50000000E-05
           0.03000000
           0.03000000
           0.03000000
           0.03000000
END griddata

