begin options
  print_option  summary
  complexity  complex
end options

begin nonlinear
  outer_dvclose  1.00000000e-06
  outer_maximum  200
  under_relaxation  none
end nonlinear

begin linear
  inner_maximum  100
  inner_dvclose  1.00000000e-06
  inner_rclose       0.00100000
  relaxation_factor       0.97000000
  scaling_method  none
  reordering_method  none
end linear

