BEGIN options
END options

BEGIN dimensions
  MAXBOUND  4212
END dimensions

BEGIN period  1
  1 204      11.00000000
  1 208      11.00000000
  1 207      11.00000000
  1 252      11.00000000
  1 251      11.00000000
  1 256      11.00000000
  1 255      11.00000000
  1 268      11.00000000
  1 267      11.00000000
  1 272      11.00000000
  1 271      11.00000000
  1 316      11.00000000
  1 315      11.00000000
  1 320      11.00000000
  1 319      11.00000000
  1 331      11.00000000
  1 197      11.00000000
  1 176      11.00000000
  1 178      11.00000000
  1 183      11.00000000
  1 182      11.00000000
  1 193      11.00000000
  1 196      11.00000000
  1 194      11.00000000
  1 205      11.00000000
  1 334      11.00000000
  1 337      11.00000000
  1 338      11.00000000
  1 381      11.00000000
  1 382      11.00000000
  1 392      11.00000000
  1 391      11.00000000
  1 402      11.00000000
  1 403      11.00000000
  1 428      11.00000000
  1 437      11.00000000
  1 430      11.00000000
  1 439      11.00000000
  1 604      11.00000000
  1 610      11.00000000
  1 601      11.00000000
  1 603      11.00000000
  1 624      11.00000000
  1 623      11.00000000
  1 630      11.00000000
  1 632      11.00000000
  1 863      11.00000000
  1 865      11.00000000
  1 871      11.00000000
  1 873      11.00000000
  1 895      11.00000000
  1 897      11.00000000
  1 903      11.00000000
  1 905      11.00000000
  1 1215      11.00000000
  1 1214      11.00000000
  1 1220      11.00000000
  1 1222      11.00000000
  1 1244      11.00000000
  1 1246      11.00000000
  1 1252      11.00000000
  1 1254      11.00000000
  1 1488      11.00000000
  1 1490      11.00000000
  1 1496      11.00000000
  1 1498      11.00000000
  1 1520      11.00000000
  1 1522      11.00000000
  1 1528      11.00000000
  1 1530      11.00000000
  1 1855      11.00000000
  1 1857      11.00000000
  1 1863      11.00000000
  1 1865      11.00000000
  1 1887      11.00000000
  1 1889      11.00000000
  1 1895      11.00000000
  1 1897      11.00000000
  1 2131      11.00000000
  1 2133      11.00000000
  1 2139      11.00000000
  1 2141      11.00000000
  1 2163      11.00000000
  1 2165      11.00000000
  1 2171      11.00000000
  1 2173      11.00000000
  1 2480      11.00000000
  1 2482      11.00000000
  1 2488      11.00000000
  1 2490      11.00000000
  1 2512      11.00000000
  1 2514      11.00000000
  1 2520      11.00000000
  1 2522      11.00000000
  1 2756      11.00000000
  1 2758      11.00000000
  1 2764      11.00000000
  1 2766      11.00000000
  1 2788      11.00000000
  1 2790      11.00000000
  1 2796      11.00000000
  1 2798      11.00000000
  1 2961      11.00000000
  1 2963      11.00000000
  1 2969      11.00000000
  1 2971      11.00000000
  1 2993      11.00000000
  1 2995      11.00000000
  1 3004      11.00000000
  1 3006      11.00000000
  1 3282      11.00000000
  1 3237      11.00000000
  1 3288      11.00000000
  1 3285      11.00000000
  1 3303      11.00000000
  1 3298      11.00000000
  1 3312      11.00000000
  1 3309      11.00000000
  1 3361      11.00000000
  1 3363      11.00000000
  1 3369      11.00000000
  1 3372      11.00000000
  1 3391      11.00000000
  1 3401      11.00000000
  1 3407      11.00000000
  1 3410      11.00000000
  1 3689      11.00000000
  1 3676      11.00000000
  1 3695      11.00000000
  1 3692      11.00000000
  1 3722      11.00000000
  1 3717      11.00000000
  1 3731      11.00000000
  1 3728      11.00000000
  1 3774      11.00000000
  1 3776      11.00000000
  1 3782      11.00000000
  1 3785      11.00000000
  1 3789      11.00000000
  1 3791      11.00000000
  1 3837      11.00000000
  1 3839      11.00000000
  1 4074      11.00000000
  1 4122      11.00000000
  1 4076      11.00000000
  1 4124      11.00000000
  1 4131      11.00000000
  1 4128      11.00000000
  1 4142      11.00000000
  1 4137      11.00000000
  1 4180      11.00000000
  1 4182      11.00000000
  1 4191      11.00000000
  1 4194      11.00000000
  1 4221      11.00000000
  1 4223      11.00000000
  1 4230      11.00000000
  1 4235      11.00000000
  1 4497      11.00000000
  1 4506      11.00000000
  1 4499      11.00000000
  1 4535      11.00000000
  1 4508      11.00000000
  1 4544      11.00000000
  1 4537      11.00000000
  1 4880      11.00000000
  1 4546      11.00000000
  1 4587      11.00000000
  1 4590      11.00000000
  1 4593      11.00000000
  1 4614      11.00000000
  1 4636      11.00000000
  1 4639      11.00000000
  1 4645      11.00000000
  1 4647      11.00000000
  1 4882      11.00000000
  1 4891      11.00000000
  1 4888      11.00000000
  1 4913      11.00000000
  1 4915      11.00000000
  1 4921      11.00000000
  1 4923      11.00000000
  1 4972      11.00000000
  1 4974      11.00000000
  1 4983      11.00000000
  1 4985      11.00000000
  1 5007      11.00000000
  1 5009      11.00000000
  1 5015      11.00000000
  1 5017      11.00000000
  1 5258      11.00000000
  1 5279      11.00000000
  1 5281      11.00000000
  1 5287      11.00000000
  1 5289      11.00000000
  1 5248      11.00000000
  1 5250      11.00000000
  1 5256      11.00000000
  1 5339      11.00000000
  1 5342      11.00000000
  1 5345      11.00000000
  1 5347      11.00000000
  1 5374      11.00000000
  1 5376      11.00000000
  1 5383      11.00000000
  1 5385      11.00000000
  1 5602      11.00000000
  1 5604      11.00000000
  1 5610      11.00000000
  1 5609      11.00000000
  1 5631      11.00000000
  1 5633      11.00000000
  1 5639      11.00000000
  1 5641      11.00000000
  1 5686      11.00000000
  1 5688      11.00000000
  1 5695      11.00000000
  1 5697      11.00000000
  1 5738      11.00000000
  1 5741      11.00000000
  1 5744      11.00000000
  1 5751      11.00000000
  1 5763      11.00000000
  1 5762      11.00000000
  1 5767      11.00000000
  1 5766      11.00000000
  1 5811      11.00000000
  1 5810      11.00000000
  1 5815      11.00000000
  1 5814      11.00000000
  1 5827      11.00000000
  1 5826      11.00000000
  1 5831      11.00000000
  1 5830      11.00000000
  1 5875      11.00000000
  1 5874      11.00000000
  1 5879      11.00000000
  1 5878      11.00000000
  1 5891      11.00000000
  1 5890      11.00000000
  1 5895      11.00000000
  1 5894      11.00000000
  1 5915      11.00000000
  1 5917      11.00000000
  1 5922      11.00000000
  1 5913      11.00000000
  1 5934      11.00000000
  1 5933      11.00000000
  1 5932      11.00000000
  1 206      11.00000000
  1 210      11.00000000
  1 209      11.00000000
  1 254      11.00000000
  1 253      11.00000000
  1 258      11.00000000
  1 257      11.00000000
  1 270      11.00000000
  1 269      11.00000000
  1 274      11.00000000
  1 273      11.00000000
  1 318      11.00000000
  1 317      11.00000000
  1 322      11.00000000
  1 321      11.00000000
  1 333      11.00000000
  1 198      11.00000000
  1 219      11.00000000
  1 221      11.00000000
  1 184      11.00000000
  1 185      11.00000000
  1 199      11.00000000
  1 200      11.00000000
  1 211      11.00000000
  1 340      11.00000000
  1 343      11.00000000
  1 344      11.00000000
  1 387      11.00000000
  1 388      11.00000000
  1 394      11.00000000
  1 393      11.00000000
  1 424      11.00000000
  1 425      11.00000000
  1 436      11.00000000
  1 427      11.00000000
  1 438      11.00000000
  1 605      11.00000000
  1 611      11.00000000
  1 612      11.00000000
  1 606      11.00000000
  1 625      11.00000000
  1 634      11.00000000
  1 631      11.00000000
  1 633      11.00000000
  1 862      11.00000000
  1 864      11.00000000
  1 870      11.00000000
  1 872      11.00000000
  1 894      11.00000000
  1 896      11.00000000
  1 902      11.00000000
  1 904      11.00000000
  1 1216      11.00000000
  1 1217      11.00000000
  1 1223      11.00000000
  1 1225      11.00000000
  1 1247      11.00000000
  1 1249      11.00000000
  1 1255      11.00000000
  1 1257      11.00000000
  1 1487      11.00000000
  1 1489      11.00000000
  1 1495      11.00000000
  1 1497      11.00000000
  1 1519      11.00000000
  1 1521      11.00000000
  1 1527      11.00000000
  1 1529      11.00000000
  1 1858      11.00000000
  1 1860      11.00000000
  1 1866      11.00000000
  1 1868      11.00000000
  1 1890      11.00000000
  1 1892      11.00000000
  1 1898      11.00000000
  1 1900      11.00000000
  1 2130      11.00000000
  1 2132      11.00000000
  1 2138      11.00000000
  1 2140      11.00000000
  1 2162      11.00000000
  1 2164      11.00000000
  1 2170      11.00000000
  1 2172      11.00000000
  1 2483      11.00000000
  1 2485      11.00000000
  1 2491      11.00000000
  1 2493      11.00000000
  1 2515      11.00000000
  1 2517      11.00000000
  1 2523      11.00000000
  1 2525      11.00000000
  1 2755      11.00000000
  1 2757      11.00000000
  1 2763      11.00000000
  1 2765      11.00000000
  1 2787      11.00000000
  1 2789      11.00000000
  1 2795      11.00000000
  1 2797      11.00000000
  1 2964      11.00000000
  1 2966      11.00000000
  1 2972      11.00000000
  1 2974      11.00000000
  1 2996      11.00000000
  1 2998      11.00000000
  1 3005      11.00000000
  1 3007      11.00000000
  1 3239      11.00000000
  1 3236      11.00000000
  1 3287      11.00000000
  1 3245      11.00000000
  1 3300      11.00000000
  1 3297      11.00000000
  1 3311      11.00000000
  1 3306      11.00000000
  1 3362      11.00000000
  1 3364      11.00000000
  1 3370      11.00000000
  1 3383      11.00000000
  1 3399      11.00000000
  1 3402      11.00000000
  1 3408      11.00000000
  1 3413      11.00000000
  1 3678      11.00000000
  1 3675      11.00000000
  1 3694      11.00000000
  1 3684      11.00000000
  1 3719      11.00000000
  1 3716      11.00000000
  1 3730      11.00000000
  1 3725      11.00000000
  1 3775      11.00000000
  1 3777      11.00000000
  1 3783      11.00000000
  1 3807      11.00000000
  1 3829      11.00000000
  1 3831      11.00000000
  1 3838      11.00000000
  1 3840      11.00000000
  1 4073      11.00000000
  1 4082      11.00000000
  1 4075      11.00000000
  1 4084      11.00000000
  1 4130      11.00000000
  1 4106      11.00000000
  1 4139      11.00000000
  1 4136      11.00000000
  1 4183      11.00000000
  1 4185      11.00000000
  1 4192      11.00000000
  1 4205      11.00000000
  1 4222      11.00000000
  1 4224      11.00000000
  1 4233      11.00000000
  1 4236      11.00000000
  1 4494      11.00000000
  1 4505      11.00000000
  1 4496      11.00000000
  1 4524      11.00000000
  1 4507      11.00000000
  1 4543      11.00000000
  1 4526      11.00000000
  1 4877      11.00000000
  1 4545      11.00000000
  1 4588      11.00000000
  1 4606      11.00000000
  1 4612      11.00000000
  1 4615      11.00000000
  1 4637      11.00000000
  1 4642      11.00000000
  1 4648      11.00000000
  1 4650      11.00000000
  1 4879      11.00000000
  1 4890      11.00000000
  1 4885      11.00000000
  1 4912      11.00000000
  1 4914      11.00000000
  1 4920      11.00000000
  1 4922      11.00000000
  1 4975      11.00000000
  1 4977      11.00000000
  1 4984      11.00000000
  1 4986      11.00000000
  1 5008      11.00000000
  1 5010      11.00000000
  1 5016      11.00000000
  1 5018      11.00000000
  1 5257      11.00000000
  1 5276      11.00000000
  1 5278      11.00000000
  1 5284      11.00000000
  1 5286      11.00000000
  1 5247      11.00000000
  1 5249      11.00000000
  1 5255      11.00000000
  1 5340      11.00000000
  1 5350      11.00000000
  1 5356      11.00000000
  1 5358      11.00000000
  1 5375      11.00000000
  1 5377      11.00000000
  1 5386      11.00000000
  1 5388      11.00000000
  1 5599      11.00000000
  1 5601      11.00000000
  1 5607      11.00000000
  1 5608      11.00000000
  1 5630      11.00000000
  1 5632      11.00000000
  1 5638      11.00000000
  1 5640      11.00000000
  1 5687      11.00000000
  1 5689      11.00000000
  1 5714      11.00000000
  1 5716      11.00000000
  1 5739      11.00000000
  1 5742      11.00000000
  1 5745      11.00000000
  1 5757      11.00000000
  1 5756      11.00000000
  1 5761      11.00000000
  1 5760      11.00000000
  1 5805      11.00000000
  1 5804      11.00000000
  1 5809      11.00000000
  1 5808      11.00000000
  1 5821      11.00000000
  1 5820      11.00000000
  1 5825      11.00000000
  1 5824      11.00000000
  1 5869      11.00000000
  1 5868      11.00000000
  1 5873      11.00000000
  1 5872      11.00000000
  1 5885      11.00000000
  1 5884      11.00000000
  1 5889      11.00000000
  1 5888      11.00000000
  1 5914      11.00000000
  1 5916      11.00000000
  1 5911      11.00000000
  1 5912      11.00000000
  1 5931      11.00000000
  1 5930      11.00000000
  1 212      11.00000000
  1 216      11.00000000
  1 215      11.00000000
  1 260      11.00000000
  1 259      11.00000000
  1 264      11.00000000
  1 263      11.00000000
  1 276      11.00000000
  1 275      11.00000000
  1 280      11.00000000
  1 279      11.00000000
  1 324      11.00000000
  1 323      11.00000000
  1 328      11.00000000
  1 327      11.00000000
  1 339      11.00000000
  1 201      11.00000000
  1 220      11.00000000
  1 222      11.00000000
  1 227      11.00000000
  1 186      11.00000000
  1 202      11.00000000
  1 213      11.00000000
  1 342      11.00000000
  1 345      11.00000000
  1 346      11.00000000
  1 389      11.00000000
  1 390      11.00000000
  1 413      11.00000000
  1 412      11.00000000
  1 426      11.00000000
  1 433      11.00000000
  1 435      11.00000000
  1 608      11.00000000
  1 614      11.00000000
  1 613      11.00000000
  1 607      11.00000000
  1 636      11.00000000
  1 635      11.00000000
  1 642      11.00000000
  1 644      11.00000000
  1 859      11.00000000
  1 861      11.00000000
  1 867      11.00000000
  1 869      11.00000000
  1 891      11.00000000
  1 893      11.00000000
  1 899      11.00000000
  1 901      11.00000000
  1 1227      11.00000000
  1 1218      11.00000000
  1 1224      11.00000000
  1 1226      11.00000000
  1 1248      11.00000000
  1 1250      11.00000000
  1 1256      11.00000000
  1 1258      11.00000000
  1 1484      11.00000000
  1 1486      11.00000000
  1 1492      11.00000000
  1 1494      11.00000000
  1 1516      11.00000000
  1 1518      11.00000000
  1 1524      11.00000000
  1 1526      11.00000000
  1 1859      11.00000000
  1 1861      11.00000000
  1 1867      11.00000000
  1 1869      11.00000000
  1 1891      11.00000000
  1 1893      11.00000000
  1 1899      11.00000000
  1 1901      11.00000000
  1 2127      11.00000000
  1 2129      11.00000000
  1 2135      11.00000000
  1 2137      11.00000000
  1 2159      11.00000000
  1 2161      11.00000000
  1 2167      11.00000000
  1 2169      11.00000000
  1 2484      11.00000000
  1 2486      11.00000000
  1 2492      11.00000000
  1 2494      11.00000000
  1 2516      11.00000000
  1 2518      11.00000000
  1 2524      11.00000000
  1 2526      11.00000000
  1 2752      11.00000000
  1 2754      11.00000000
  1 2760      11.00000000
  1 2762      11.00000000
  1 2784      11.00000000
  1 2786      11.00000000
  1 2792      11.00000000
  1 2794      11.00000000
  1 2965      11.00000000
  1 2967      11.00000000
  1 2973      11.00000000
  1 2975      11.00000000
  1 2997      11.00000000
  1 2999      11.00000000
  1 3016      11.00000000
  1 3018      11.00000000
  1 3238      11.00000000
  1 3233      11.00000000
  1 3247      11.00000000
  1 3244      11.00000000
  1 3299      11.00000000
  1 3269      11.00000000
  1 3308      11.00000000
  1 3305      11.00000000
  1 3373      11.00000000
  1 3375      11.00000000
  1 3381      11.00000000
  1 3384      11.00000000
  1 3400      11.00000000
  1 3405      11.00000000
  1 3411      11.00000000
  1 3414      11.00000000
  1 3677      11.00000000
  1 3672      11.00000000
  1 3686      11.00000000
  1 3683      11.00000000
  1 3718      11.00000000
  1 3705      11.00000000
  1 3727      11.00000000
  1 3724      11.00000000
  1 3797      11.00000000
  1 3799      11.00000000
  1 3805      11.00000000
  1 3808      11.00000000
  1 3830      11.00000000
  1 3832      11.00000000
  1 3841      11.00000000
  1 3843      11.00000000
  1 4070      11.00000000
  1 4081      11.00000000
  1 4072      11.00000000
  1 4083      11.00000000
  1 4108      11.00000000
  1 4105      11.00000000
  1 4138      11.00000000
  1 4114      11.00000000
  1 4184      11.00000000
  1 4186      11.00000000
  1 4203      11.00000000
  1 4206      11.00000000
  1 4225      11.00000000
  1 4227      11.00000000
  1 4234      11.00000000
  1 4279      11.00000000
  1 4493      11.00000000
  1 4502      11.00000000
  1 4495      11.00000000
  1 4523      11.00000000
  1 4504      11.00000000
  1 4532      11.00000000
  1 4525      11.00000000
  1 4876      11.00000000
  1 4534      11.00000000
  1 4604      11.00000000
  1 4607      11.00000000
  1 4613      11.00000000
  1 4618      11.00000000
  1 4640      11.00000000
  1 4643      11.00000000
  1 4649      11.00000000
  1 4651      11.00000000
  1 4878      11.00000000
  1 4887      11.00000000
  1 4884      11.00000000
  1 4909      11.00000000
  1 4911      11.00000000
  1 4917      11.00000000
  1 4919      11.00000000
  1 4976      11.00000000
  1 4978      11.00000000
  1 4995      11.00000000
  1 4997      11.00000000
  1 5019      11.00000000
  1 5021      11.00000000
  1 5027      11.00000000
  1 5029      11.00000000
  1 5254      11.00000000
  1 5275      11.00000000
  1 5277      11.00000000
  1 5283      11.00000000
  1 5285      11.00000000
  1 5244      11.00000000
  1 5246      11.00000000
  1 5252      11.00000000
  1 5348      11.00000000
  1 5351      11.00000000
  1 5357      11.00000000
  1 5359      11.00000000
  1 5378      11.00000000
  1 5380      11.00000000
  1 5387      11.00000000
  1 5389      11.00000000
  1 5598      11.00000000
  1 5600      11.00000000
  1 5606      11.00000000
  1 5597      11.00000000
  1 5619      11.00000000
  1 5621      11.00000000
  1 5627      11.00000000
  1 5629      11.00000000
  1 5706      11.00000000
  1 5708      11.00000000
  1 5715      11.00000000
  1 5717      11.00000000
  1 5720      11.00000000
  1 5743      11.00000000
  1 5755      11.00000000
  1 5754      11.00000000
  1 5759      11.00000000
  1 5758      11.00000000
  1 5803      11.00000000
  1 5802      11.00000000
  1 5807      11.00000000
  1 5806      11.00000000
  1 5819      11.00000000
  1 5818      11.00000000
  1 5823      11.00000000
  1 5822      11.00000000
  1 5867      11.00000000
  1 5866      11.00000000
  1 5871      11.00000000
  1 5870      11.00000000
  1 5883      11.00000000
  1 5882      11.00000000
  1 5887      11.00000000
  1 5886      11.00000000
  1 5903      11.00000000
  1 5905      11.00000000
  1 5910      11.00000000
  1 5909      11.00000000
  1 5908      11.00000000
  1 214      11.00000000
  1 218      11.00000000
  1 217      11.00000000
  1 262      11.00000000
  1 261      11.00000000
  1 266      11.00000000
  1 265      11.00000000
  1 278      11.00000000
  1 277      11.00000000
  1 282      11.00000000
  1 281      11.00000000
  1 326      11.00000000
  1 325      11.00000000
  1 330      11.00000000
  1 329      11.00000000
  1 341      11.00000000
  1 223      11.00000000
  1 225      11.00000000
  1 228      11.00000000
  1 229      11.00000000
  1 224      11.00000000
  1 235      11.00000000
  1 364      11.00000000
  1 367      11.00000000
  1 368      11.00000000
  1 408      11.00000000
  1 409      11.00000000
  1 415      11.00000000
  1 414      11.00000000
  1 432      11.00000000
  1 434      11.00000000
  1 609      11.00000000
  1 615      11.00000000
  1 616      11.00000000
  1 650      11.00000000
  1 637      11.00000000
  1 638      11.00000000
  1 643      11.00000000
  1 645      11.00000000
  1 858      11.00000000
  1 860      11.00000000
  1 866      11.00000000
  1 868      11.00000000
  1 890      11.00000000
  1 892      11.00000000
  1 898      11.00000000
  1 900      11.00000000
  1 1228      11.00000000
  1 1229      11.00000000
  1 1235      11.00000000
  1 1237      11.00000000
  1 1259      11.00000000
  1 1261      11.00000000
  1 1267      11.00000000
  1 1269      11.00000000
  1 1483      11.00000000
  1 1485      11.00000000
  1 1491      11.00000000
  1 1493      11.00000000
  1 1515      11.00000000
  1 1517      11.00000000
  1 1523      11.00000000
  1 1525      11.00000000
  1 1870      11.00000000
  1 1872      11.00000000
  1 1878      11.00000000
  1 1880      11.00000000
  1 1902      11.00000000
  1 1904      11.00000000
  1 1910      11.00000000
  1 1912      11.00000000
  1 2126      11.00000000
  1 2128      11.00000000
  1 2134      11.00000000
  1 2136      11.00000000
  1 2158      11.00000000
  1 2160      11.00000000
  1 2166      11.00000000
  1 2168      11.00000000
  1 2495      11.00000000
  1 2497      11.00000000
  1 2503      11.00000000
  1 2505      11.00000000
  1 2527      11.00000000
  1 2529      11.00000000
  1 2535      11.00000000
  1 2537      11.00000000
  1 2751      11.00000000
  1 2753      11.00000000
  1 2759      11.00000000
  1 2761      11.00000000
  1 2783      11.00000000
  1 2785      11.00000000
  1 2791      11.00000000
  1 2793      11.00000000
  1 2976      11.00000000
  1 2978      11.00000000
  1 2984      11.00000000
  1 2986      11.00000000
  1 3008      11.00000000
  1 3010      11.00000000
  1 3017      11.00000000
  1 3019      11.00000000
  1 3235      11.00000000
  1 3232      11.00000000
  1 3246      11.00000000
  1 3241      11.00000000
  1 3271      11.00000000
  1 3268      11.00000000
  1 3307      11.00000000
  1 3277      11.00000000
  1 3374      11.00000000
  1 3376      11.00000000
  1 3382      11.00000000
  1 3387      11.00000000
  1 3403      11.00000000
  1 3406      11.00000000
  1 3412      11.00000000
  1 3457      11.00000000
  1 3674      11.00000000
  1 3671      11.00000000
  1 3685      11.00000000
  1 3680      11.00000000
  1 3707      11.00000000
  1 3704      11.00000000
  1 3726      11.00000000
  1 3713      11.00000000
  1 3798      11.00000000
  1 3800      11.00000000
  1 3806      11.00000000
  1 3811      11.00000000
  1 3833      11.00000000
  1 3835      11.00000000
  1 3842      11.00000000
  1 3844      11.00000000
  1 4069      11.00000000
  1 4078      11.00000000
  1 4071      11.00000000
  1 4080      11.00000000
  1 4107      11.00000000
  1 4102      11.00000000
  1 4116      11.00000000
  1 4113      11.00000000
  1 4195      11.00000000
  1 4197      11.00000000
  1 4204      11.00000000
  1 4209      11.00000000
  1 4226      11.00000000
  1 4228      11.00000000
  1 4277      11.00000000
  1 4280      11.00000000
  1 4450      11.00000000
  1 4501      11.00000000
  1 4452      11.00000000
  1 4520      11.00000000
  1 4503      11.00000000
  1 4531      11.00000000
  1 4522      11.00000000
  1 4865      11.00000000
  1 4533      11.00000000
  1 4605      11.00000000
  1 4610      11.00000000
  1 4616      11.00000000
  1 4619      11.00000000
  1 4641      11.00000000
  1 4654      11.00000000
  1 4660      11.00000000
  1 4662      11.00000000
  1 4867      11.00000000
  1 4886      11.00000000
  1 4873      11.00000000
  1 4908      11.00000000
  1 4910      11.00000000
  1 4916      11.00000000
  1 4918      11.00000000
  1 4987      11.00000000
  1 4989      11.00000000
  1 4996      11.00000000
  1 4998      11.00000000
  1 5020      11.00000000
  1 5022      11.00000000
  1 5028      11.00000000
  1 5030      11.00000000
  1 5253      11.00000000
  1 5264      11.00000000
  1 5266      11.00000000
  1 5272      11.00000000
  1 5274      11.00000000
  1 5243      11.00000000
  1 5245      11.00000000
  1 5251      11.00000000
  1 5349      11.00000000
  1 5354      11.00000000
  1 5360      11.00000000
  1 5362      11.00000000
  1 5379      11.00000000
  1 5381      11.00000000
  1 5430      11.00000000
  1 5432      11.00000000
  1 5587      11.00000000
  1 5589      11.00000000
  1 5595      11.00000000
  1 5596      11.00000000
  1 5618      11.00000000
  1 5620      11.00000000
  1 5626      11.00000000
  1 5628      11.00000000
  1 5707      11.00000000
  1 5709      11.00000000
  1 5718      11.00000000
  1 5721      11.00000000
  1 5733      11.00000000
  1 5732      11.00000000
  1 5737      11.00000000
  1 5736      11.00000000
  1 5781      11.00000000
  1 5780      11.00000000
  1 5785      11.00000000
  1 5784      11.00000000
  1 5797      11.00000000
  1 5796      11.00000000
  1 5801      11.00000000
  1 5800      11.00000000
  1 5845      11.00000000
  1 5844      11.00000000
  1 5849      11.00000000
  1 5848      11.00000000
  1 5861      11.00000000
  1 5860      11.00000000
  1 5865      11.00000000
  1 5864      11.00000000
  1 5902      11.00000000
  1 5904      11.00000000
  1 5907      11.00000000
  1 5906      11.00000000
  1 236      11.00000000
  1 240      11.00000000
  1 239      11.00000000
  1 284      11.00000000
  1 283      11.00000000
  1 288      11.00000000
  1 287      11.00000000
  1 300      11.00000000
  1 299      11.00000000
  1 304      11.00000000
  1 303      11.00000000
  1 348      11.00000000
  1 347      11.00000000
  1 352      11.00000000
  1 351      11.00000000
  1 363      11.00000000
  1 226      11.00000000
  1 231      11.00000000
  1 230      11.00000000
  1 237      11.00000000
  1 366      11.00000000
  1 369      11.00000000
  1 370      11.00000000
  1 410      11.00000000
  1 411      11.00000000
  1 421      11.00000000
  1 420      11.00000000
  1 423      11.00000000
  1 652      11.00000000
  1 658      11.00000000
  1 617      11.00000000
  1 651      11.00000000
  1 640      11.00000000
  1 639      11.00000000
  1 646      11.00000000
  1 648      11.00000000
  1 847      11.00000000
  1 849      11.00000000
  1 855      11.00000000
  1 857      11.00000000
  1 879      11.00000000
  1 881      11.00000000
  1 887      11.00000000
  1 889      11.00000000
  1 1231      11.00000000
  1 1230      11.00000000
  1 1236      11.00000000
  1 1238      11.00000000
  1 1260      11.00000000
  1 1262      11.00000000
  1 1268      11.00000000
  1 1270      11.00000000
  1 1472      11.00000000
  1 1474      11.00000000
  1 1480      11.00000000
  1 1482      11.00000000
  1 1504      11.00000000
  1 1506      11.00000000
  1 1512      11.00000000
  1 1514      11.00000000
  1 1871      11.00000000
  1 1873      11.00000000
  1 1879      11.00000000
  1 1881      11.00000000
  1 1903      11.00000000
  1 1905      11.00000000
  1 1911      11.00000000
  1 1913      11.00000000
  1 2115      11.00000000
  1 2117      11.00000000
  1 2123      11.00000000
  1 2125      11.00000000
  1 2147      11.00000000
  1 2149      11.00000000
  1 2155      11.00000000
  1 2157      11.00000000
  1 2496      11.00000000
  1 2498      11.00000000
  1 2504      11.00000000
  1 2506      11.00000000
  1 2528      11.00000000
  1 2530      11.00000000
  1 2536      11.00000000
  1 2538      11.00000000
  1 2740      11.00000000
  1 2742      11.00000000
  1 2748      11.00000000
  1 2750      11.00000000
  1 2772      11.00000000
  1 2774      11.00000000
  1 2780      11.00000000
  1 2782      11.00000000
  1 2977      11.00000000
  1 2979      11.00000000
  1 2985      11.00000000
  1 2987      11.00000000
  1 3009      11.00000000
  1 3011      11.00000000
  1 3020      11.00000000
  1 3022      11.00000000
  1 3234      11.00000000
  1 3221      11.00000000
  1 3243      11.00000000
  1 3240      11.00000000
  1 3270      11.00000000
  1 3265      11.00000000
  1 3279      11.00000000
  1 3276      11.00000000
  1 3377      11.00000000
  1 3379      11.00000000
  1 3385      11.00000000
  1 3388      11.00000000
  1 3404      11.00000000
  1 3449      11.00000000
  1 3455      11.00000000
  1 3458      11.00000000
  1 3673      11.00000000
  1 3628      11.00000000
  1 3682      11.00000000
  1 3679      11.00000000
  1 3706      11.00000000
  1 3701      11.00000000
  1 3715      11.00000000
  1 3712      11.00000000
  1 3801      11.00000000
  1 3803      11.00000000
  1 3809      11.00000000
  1 3812      11.00000000
  1 3834      11.00000000
  1 3836      11.00000000
  1 3853      11.00000000
  1 3855      11.00000000
  1 4058      11.00000000
  1 4077      11.00000000
  1 4060      11.00000000
  1 4079      11.00000000
  1 4104      11.00000000
  1 4101      11.00000000
  1 4115      11.00000000
  1 4110      11.00000000
  1 4196      11.00000000
  1 4198      11.00000000
  1 4207      11.00000000
  1 4210      11.00000000
  1 4269      11.00000000
  1 4271      11.00000000
  1 4278      11.00000000
  1 4283      11.00000000
  1 4449      11.00000000
  1 4458      11.00000000
  1 4451      11.00000000
  1 4519      11.00000000
  1 4460      11.00000000
  1 4528      11.00000000
  1 4521      11.00000000
  1 4864      11.00000000
  1 4530      11.00000000
  1 4608      11.00000000
  1 4611      11.00000000
  1 4617      11.00000000
  1 4630      11.00000000
  1 4652      11.00000000
  1 4655      11.00000000
  1 4661      11.00000000
  1 4663      11.00000000
  1 4866      11.00000000
  1 4875      11.00000000
  1 4872      11.00000000
  1 4897      11.00000000
  1 4899      11.00000000
  1 4905      11.00000000
  1 4907      11.00000000
  1 4988      11.00000000
  1 4990      11.00000000
  1 4999      11.00000000
  1 5001      11.00000000
  1 5023      11.00000000
  1 5025      11.00000000
  1 5031      11.00000000
  1 5033      11.00000000
  1 5242      11.00000000
  1 5263      11.00000000
  1 5265      11.00000000
  1 5271      11.00000000
  1 5273      11.00000000
  1 5232      11.00000000
  1 5234      11.00000000
  1 5240      11.00000000
  1 5352      11.00000000
  1 5355      11.00000000