BEGIN DIMENSIONS
  NCELLS 2
END DIMENSIONS

BEGIN GRIDDATA
  IZONE
    INTERNAL  FACTOR  1  IPRN  12
    1 2
END GRIDDATA
