begin options
  PRINT_OPTION ALL
end options

begin nonlinear
	outer_hclose 1.e-6
	outer_maximum 500 
	under_relaxation none
	BACKTRACKING_NUMBER 0
end nonlinear


begin linear
	inner_hclose 1.0e-6
	inner_rclose 0.001
	inner_maximum 100
	linear_acceleration cg
	scaling_method none
	REORDERING_METHOD none
	relaxation_factor 1.0
end linear
