# MODFLOW2000 Basic Package
#MODFLOW Data Set Created by Groundwater Vistas
#   

OPEN/CLOSE  Child_GN.ib  1 (free)                     -1
OPEN/CLOSE  Child_GN.ib  1 (free)                     -1
OPEN/CLOSE  Child_GN.ib  1 (free)                     -1
OPEN/CLOSE  Child_GN.ib  1 (free)                     -1
OPEN/CLOSE  Child_GN.ib  1 (free)                     -1
OPEN/CLOSE  Child_GN.ib  1 (free)                     -1
OPEN/CLOSE  Child_GN.ib  1 (free)                     -1
OPEN/CLOSE  Child_GN.ib  1 (free)                     -1
OPEN/CLOSE  Child_GN.ib  1 (free)                     -1
OPEN/CLOSE  Child_GN.ib  1 (free)                     -1
OPEN/CLOSE  Child_GN.ib  1 (free)                     -1
OPEN/CLOSE  Child_GN.ib  1 (free)                     -1
OPEN/CLOSE  Child_GN.ib  1 (free)                     -1
OPEN/CLOSE  Child_GN.ib  1 (free)                     -1
OPEN/CLOSE  Child_GN.ib  1 (free)                     -1
OPEN/CLOSE  Child_GN.ib  1 (free)                     -1
OPEN/CLOSE  Child_GN.ib  1 (free)                     -1
OPEN/CLOSE  Child_GN.ib  1 (free)                     -1
OPEN/CLOSE  Child_GN.ib  1 (free)                     -1
OPEN/CLOSE  Child_GN.ib  1 (free)                     -1
OPEN/CLOSE  Child_GN.ib  1 (free)                     -1
OPEN/CLOSE  Child_GN.ib  1 (free)                     -1
OPEN/CLOSE  Child_GN.ib  1 (free)                     -1
OPEN/CLOSE  Child_GN.ib  1 (free)                     -1
OPEN/CLOSE  Child_GN.ib  1 (free)                     -1
9.9900e+02
CONSTANT	90	-1
CONSTANT	90	-1
CONSTANT	90	-1
CONSTANT	90	-1
CONSTANT	90	-1
CONSTANT	90	-1
CONSTANT	90	-1
CONSTANT	90	-1
CONSTANT	90	-1
CONSTANT	90	-1
CONSTANT	90	-1
CONSTANT	90	-1
CONSTANT	90	-1
CONSTANT	90	-1
CONSTANT	90	-1
CONSTANT	90	-1
CONSTANT	90	-1
CONSTANT	90	-1
CONSTANT	90	-1
CONSTANT	90	-1
CONSTANT	90	-1
CONSTANT	90	-1
CONSTANT	90	-1
CONSTANT	90	-1
CONSTANT	90	-1