# MODFLOW2000 Recharge Package
PARAMETER  0
         3        50
         1         1
        22     1.000(10e12.4)                   -1     RECHARGE
  1.1098e-09  1.1098e-09  1.1098e-09  1.1098e-09  1.1098e-09  1.1098e-09  1.1098e-09  1.1098e-09  1.1098e-09  1.1098e-09
  1.1098e-09  1.1098e-09  1.1098e-09  1.1098e-09  1.1098e-09  1.1098e-09  1.1098e-09  1.1098e-09  1.1098e-09  1.1098e-09
  1.1098e-09  1.1098e-09  1.1098e-09  1.1098e-09  1.1098e-09  1.1098e-09  1.1098e-09  1.1098e-09  1.1098e-09  1.1098e-09
  1.1098e-09  1.1098e-09  1.1098e-09  1.1098e-09  1.1098e-09  1.1098e-09  1.1098e-09  1.1098e-09  1.1098e-09  1.1098e-09
  1.1098e-09  1.1098e-09  1.1098e-09  1.1098e-09  1.1098e-09  1.1098e-09  1.1098e-09  1.1098e-09  1.1098e-09
  1.1098e-09  1.1098e-09  1.1098e-09  1.1098e-09  1.1098e-09  1.1098e-09  1.1098e-09  1.1098e-09  1.1098e-09  1.1098e-09
  1.1098e-09  1.1098e-09  1.1098e-09  1.1098e-09  1.1098e-09  1.1098e-09  1.1098e-09  1.1098e-09  1.1098e-09  1.1098e-09
  1.1098e-09  1.1098e-09  1.1098e-09  1.1098e-09  1.1098e-09  1.1098e-09  1.1098e-09  1.1098e-09  1.1098e-09  1.1098e-09
  1.1098e-09  1.1098e-09  1.1098e-09  1.1098e-09  1.1098e-09  1.1098e-09  1.1098e-09  1.1098e-09  1.1098e-09  1.1098e-09
  1.1098e-09  1.1098e-09  1.1098e-09  1.1098e-09  1.1098e-09  1.1098e-09  1.1098e-09  1.1098e-09  1.1098e-09
  1.1098e-09  1.1098e-09  1.1098e-09  1.1098e-09  1.1098e-09  1.1098e-09  1.1098e-09  1.1098e-09  1.1098e-09  1.1098e-09
  1.1098e-09  1.1098e-09  1.1098e-09  1.1098e-09  1.1098e-09  1.1098e-09  1.1098e-09  1.1098e-09  1.1098e-09  1.1098e-09
  1.1098e-09  1.1098e-09  1.1098e-09  1.1098e-09  1.1098e-09  1.1098e-09  1.1098e-09  1.1098e-09  1.1098e-09  1.1098e-09
  1.1098e-09  1.1098e-09  1.1098e-09  1.1098e-09  1.1098e-09  1.1098e-09  1.1098e-09  1.1098e-09  1.1098e-09  1.1098e-09
  1.1098e-09  1.1098e-09  1.1098e-09  1.1098e-09  1.1098e-09  1.1098e-09  1.1098e-09  1.1098e-09  1.1098e-09
  1.1098e-09  1.1098e-09  1.1098e-09  1.1098e-09  1.1098e-09  1.1098e-09  1.1098e-09  1.1098e-09  1.1098e-09  1.1098e-09
  1.1098e-09  1.1098e-09  1.1098e-09  1.1098e-09  1.1098e-09  1.1098e-09  1.1098e-09  1.1098e-09  1.1098e-09  1.1098e-09
  1.1098e-09  1.1098e-09  1.1098e-09  1.1098e-09  1.1098e-09  1.1098e-09  1.1098e-09  1.1098e-09  1.1098e-09  1.1098e-09
  1.1098e-09  1.1098e-09  1.1098e-09  1.1098e-09  1.1098e-09  1.1098e-09  1.1098e-09  1.1098e-09  1.1098e-09  1.1098e-09
  1.1098e-09  1.1098e-09  1.1098e-09  1.1098e-09  1.1098e-09  1.1098e-09  1.1098e-09  1.1098e-09  1.1098e-09
  1.1098e-09  1.1098e-09  1.1098e-09  1.1098e-09  1.1098e-09  1.1098e-09  1.1098e-09  1.1098e-09  1.1098e-09  1.1098e-09
  1.1098e-09  1.1098e-09  1.1098e-09  1.1098e-09  1.1098e-09  1.1098e-09  1.1098e-09  1.1098e-09  1.1098e-09  1.1098e-09
  1.1098e-09  1.1098e-09  1.1098e-09  1.1098e-09  1.1098e-09  1.1098e-09  1.1098e-09  1.1098e-09  1.1098e-09  1.1098e-09
  1.1098e-09  1.1098e-09  1.1098e-09  1.1098e-09  1.1098e-09  1.1098e-09  1.1098e-09  1.1098e-09  1.1098e-09  1.1098e-09
  1.1098e-09  1.1098e-09  1.1098e-09  1.1098e-09  1.1098e-09  1.1098e-09  1.1098e-09  1.1098e-09  1.1098e-09
  1.1098e-09  1.1098e-09  1.1098e-09  1.1098e-09  1.1098e-09  1.1098e-09  1.1098e-09  1.1098e-09  1.1098e-09  1.1098e-09
  1.1098e-09  1.1098e-09  1.1098e-09  1.1098e-09  1.1098e-09  1.1098e-09  1.1098e-09  1.1098e-09  1.1098e-09  1.1098e-09
  1.1098e-09  1.1098e-09  1.1098e-09  1.1098e-09  1.1098e-09  1.1098e-09  1.1098e-09  1.1098e-09  1.1098e-09  1.1098e-09
  1.1098e-09  1.1098e-09  1.1098e-09  1.1098e-09  1.1098e-09  1.1098e-09  1.1098e-09  1.1098e-09  1.1098e-09  1.1098e-09
  1.1098e-09  1.1098e-09  1.1098e-09  1.1098e-09  1.1098e-09  1.1098e-09  1.1098e-09  1.1098e-09  1.1098e-09
  1.1098e-09  1.1098e-09  1.1098e-09  1.1098e-09  1.1098e-09  1.1098e-09  1.1098e-09  1.1098e-09  1.1098e-09  1.1098e-09
  1.1098e-09  1.1098e-09  1.1098e-09  1.1098e-09  1.1098e-09  1.1098e-09  1.1098e-09  1.1098e-09  1.1098e-09  1.1098e-09
  1.1098e-09  1.1098e-09  1.1098e-09  1.1098e-09  1.1098e-09  1.1098e-09  1.1098e-09  1.1098e-09  1.1098e-09  1.1098e-09
  1.1098e-09  1.1098e-09  1.1098e-09  1.1098e-09  1.1098e-09  1.1098e-09  1.1098e-09  1.1098e-09  1.1098e-09  1.1098e-09
  1.1098e-09  1.1098e-09  1.1098e-09  1.1098e-09  1.1098e-09  1.1098e-09  1.1098e-09  1.1098e-09  1.1098e-09
  1.1098e-09  1.1098e-09  1.1098e-09  1.1098e-09  1.1098e-09  1.1098e-09  1.1098e-09  1.1098e-09  1.1098e-09  1.1098e-09
  1.1098e-09  1.1098e-09  1.1098e-09  1.1098e-09  1.1098e-09  1.1098e-09  1.1098e-09  1.1098e-09  1.1098e-09  1.1098e-09
  1.1098e-09  1.1098e-09  1.1098e-09  1.1098e-09  1.1098e-09  1.1098e-09  1.1098e-09  1.1098e-09  1.1098e-09  1.1098e-09
  1.1098e-09  1.1098e-09  1.1098e-09  1.1098e-09  1.1098e-09  1.1098e-09  1.1098e-09  1.1098e-09  1.1098e-09  1.1098e-09
  1.1098e-09  1.1098e-09  1.1098e-09  1.1098e-09  1.1098e-09  1.1098e-09  1.1098e-09  1.1098e-09  1.1098e-09
  1.1098e-09  1.1098e-09  1.1098e-09  1.1098e-09  1.1098e-09  1.1098e-09  1.1098e-09  1.1098e-09  1.1098e-09  1.1098e-09
  1.1098e-09  1.1098e-09  1.1098e-09  1.1098e-09  1.1098e-09  1.1098e-09  1.1098e-09  1.1098e-09  1.1098e-09  1.1098e-09
  1.1098e-09  1.1098e-09  1.1098e-09  1.1098e-09  1.1098e-09  1.1098e-09  1.1098e-09  1.1098e-09  1.1098e-09  1.1098e-09
  1.1098e-09  1.1098e-09  1.1098e-09  1.1098e-09  1.1098e-09  1.1098e-09  1.1098e-09  1.1098e-09  1.1098e-09  1.1098e-09
  1.1098e-09  1.1098e-09  1.1098e-09  1.1098e-09  1.1098e-09  1.1098e-09  1.1098e-09  1.1098e-09  1.1098e-09
  1.1098e-09  1.1098e-09  1.1098e-09  1.1098e-09  1.1098e-09  1.1098e-09  1.1098e-09  1.1098e-09  1.1098e-09  1.1098e-09
  1.1098e-09  1.1098e-09  1.1098e-09  1.1098e-09  1.1098e-09  1.1098e-09  1.1098e-09  1.1098e-09  1.1098e-09  1.1098e-09
  1.1098e-09  1.1098e-09  1.1098e-09  1.1098e-09  1.1098e-09  1.1098e-09  1.1098e-09  1.1098e-09  1.1098e-09  1.1098e-09
  1.1098e-09  1.1098e-09  1.1098e-09  1.1098e-09  1.1098e-09  1.1098e-09  1.1098e-09  1.1098e-09  1.1098e-09  1.1098e-09
  1.1098e-09  1.1098e-09  1.1098e-09  1.1098e-09  1.1098e-09  1.1098e-09  1.1098e-09  1.1098e-09  1.1098e-09
  1.1098e-09  1.1098e-09  1.1098e-09  1.1098e-09  1.1098e-09  1.1098e-09  1.1098e-09  1.1098e-09  1.1098e-09  1.1098e-09
  1.1098e-09  1.1098e-09  1.1098e-09  1.1098e-09  1.1098e-09  1.1098e-09  1.1098e-09  1.1098e-09  1.1098e-09  1.1098e-09
  1.1098e-09  1.1098e-09  1.1098e-09  1.1098e-09  1.1098e-09  1.1098e-09  1.1098e-09  1.1098e-09  1.1098e-09  1.1098e-09
  1.1098e-09  1.1098e-09  1.1098e-09  1.1098e-09  1.1098e-09  1.1098e-09  1.1098e-09  1.1098e-09  1.1098e-09  1.1098e-09
  1.1098e-09  1.1098e-09  1.1098e-09  1.1098e-09  1.1098e-09  1.1098e-09  1.1098e-09  1.1098e-09  1.1098e-09
  1.1098e-09  1.1098e-09  1.1098e-09  1.1098e-09  1.1098e-09  1.1098e-09  1.1098e-09  1.1098e-09  1.1098e-09  1.1098e-09
  1.1098e-09  1.1098e-09  1.1098e-09  1.1098e-09  1.1098e-09  1.1098e-09  1.1098e-09  1.1098e-09  1.1098e-09  1.1098e-09
  1.1098e-09  1.1098e-09  1.1098e-09  1.1098e-09  1.1098e-09  1.1098e-09  1.1098e-09  1.1098e-09  1.1098e-09  1.1098e-09
  1.1098e-09  1.1098e-09  1.1098e-09  1.1098e-09  1.1098e-09  1.1098e-09  1.1098e-09  1.1098e-09  1.1098e-09  1.1098e-09
  1.1098e-09  1.1098e-09  1.1098e-09  1.1098e-09  1.1098e-09  1.1098e-09  1.1098e-09  1.1098e-09  1.1098e-09
  1.1098e-09  1.1098e-09  1.1098e-09  1.1098e-09  1.1098e-09  1.1098e-09  1.1098e-09  1.1098e-09  1.1098e-09  1.1098e-09
  1.1098e-09  1.1098e-09  1.1098e-09  1.1098e-09  1.1098e-09  1.1098e-09  1.1098e-09  1.1098e-09  1.1098e-09  1.1098e-09
  1.1098e-09  1.1098e-09  1.1098e-09  1.1098e-09  1.1098e-09  1.1098e-09  1.1098e-09  1.1098e-09  1.1098e-09  1.1098e-09
  1.1098e-09  1.1098e-09  1.1098e-09  1.1098e-09  1.1098e-09  1.1098e-09  1.1098e-09  1.1098e-09  1.1098e-09  1.1098e-09
  1.1098e-09  1.1098e-09  1.1098e-09  1.1098e-09  1.1098e-09  1.1098e-09  1.1098e-09  1.1098e-09  1.1098e-09
  1.1098e-09  1.1098e-09  1.1098e-09  1.1098e-09  1.1098e-09  1.1098e-09  1.1098e-09  1.1098e-09  1.1098e-09  1.1098e-09
  1.1098e-09  1.1098e-09  1.1098e-09  1.1098e-09  1.1098e-09  1.1098e-09  1.1098e-09  1.1098e-09  1.1098e-09  1.1098e-09
  1.1098e-09  1.1098e-09  1.1098e-09  1.1098e-09  1.1098e-09  1.1098e-09  1.1098e-09  1.1098e-09  1.1098e-09  1.1098e-09
  1.1098e-09  1.1098e-09  1.1098e-09  1.1098e-09  1.1098e-09  1.1098e-09  1.1098e-09  1.1098e-09  1.1098e-09  1.1098e-09
  1.1098e-09  1.1098e-09  1.1098e-09  1.1098e-09  1.1098e-09  1.1098e-09  1.1098e-09  1.1098e-09  1.1098e-09
  1.1098e-09  1.1098e-09  1.1098e-09  1.1098e-09  1.1098e-09  1.1098e-09  1.1098e-09  1.1098e-09  1.1098e-09  1.1098e-09
  1.1098e-09  1.1098e-09  1.1098e-09  1.1098e-09  1.1098e-09  1.1098e-09  1.1098e-09  1.1098e-09  1.1098e-09  1.1098e-09
  1.1098e-09  1.1098e-09  1.1098e-09  1.1098e-09  1.1098e-09  1.1098e-09  1.1098e-09  1.1098e-09  1.1098e-09  1.1098e-09
  1.1098e-09  1.1098e-09  1.1098e-09  1.1098e-09  1.1098e-09  1.1098e-09  1.1098e-09  1.1098e-09  1.1098e-09  1.1098e-09
  1.1098e-09  1.1098e-09  1.1098e-09  1.1098e-09  1.1098e-09  1.1098e-09  1.1098e-09  1.1098e-09  1.1098e-09
  1.1098e-09  1.1098e-09  1.1098e-09  1.1098e-09  1.1098e-09  1.1098e-09  1.1098e-09  1.1098e-09  1.1098e-09  1.1098e-09
  1.1098e-09  1.1098e-09  1.1098e-09  1.1098e-09  1.1098e-09  1.1098e-09  1.1098e-09  1.1098e-09  1.1098e-09  1.1098e-09
  1.1098e-09  1.1098e-09  1.1098e-09  1.1098e-09  1.1098e-09  1.1098e-09  1.1098e-09  1.1098e-09  1.1098e-09  1.1098e-09
  1.1098e-09  1.1098e-09  1.1098e-09  1.1098e-09  1.1098e-09  1.1098e-09  1.1098e-09  1.1098e-09  1.1098e-09  1.1098e-09
  1.1098e-09  1.1098e-09  1.1098e-09  1.1098e-09  1.1098e-09  1.1098e-09  1.1098e-09  1.1098e-09  1.1098e-09
  1.1098e-09  1.1098e-09  1.1098e-09  1.1098e-09  1.1098e-09  1.1098e-09  1.1098e-09  1.1098e-09  1.1098e-09  1.1098e-09
  1.1098e-09  1.1098e-09  1.1098e-09  1.1098e-09  1.1098e-09  1.1098e-09  1.1098e-09  1.1098e-09  1.1098e-09  1.1098e-09
  1.1098e-09  1.1098e-09  1.1098e-09  1.1098e-09  1.1098e-09  1.1098e-09  1.1098e-09  1.1098e-09  1.1098e-09  1.1098e-09
  1.1098e-09  1.1098e-09  1.1098e-09  1.1098e-09  1.1098e-09  1.1098e-09  1.1098e-09  1.1098e-09  1.1098e-09  1.1098e-09
  1.1098e-09  1.1098e-09  1.1098e-09  1.1098e-09  1.1098e-09  1.1098e-09  1.1098e-09  1.1098e-09  1.1098e-09
  1.1098e-09  1.1098e-09  1.1098e-09  1.1098e-09  1.1098e-09  1.1098e-09  1.1098e-09  1.1098e-09  1.1098e-09  1.1098e-09
  1.1098e-09  1.1098e-09  1.1098e-09  1.1098e-09  1.1098e-09  1.1098e-09  1.1098e-09  1.1098e-09  1.1098e-09  1.1098e-09
  1.1098e-09  1.1098e-09  1.1098e-09  1.1098e-09  1.1098e-09  1.1098e-09  1.1098e-09  1.1098e-09  1.1098e-09  1.1098e-09
  1.1098e-09  1.1098e-09  1.1098e-09  1.1098e-09  1.1098e-09  1.1098e-09  1.1098e-09  1.1098e-09  1.1098e-09  1.1098e-09
  1.1098e-09  1.1098e-09  1.1098e-09  1.1098e-09  1.1098e-09  1.1098e-09  1.1098e-09  1.1098e-09  1.1098e-09
  1.1098e-09  1.1098e-09  1.1098e-09  1.1098e-09  1.1098e-09  1.1098e-09  1.1098e-09  1.1098e-09  1.1098e-09  1.1098e-09
  1.1098e-09  1.1098e-09  1.1098e-09  1.1098e-09  1.1098e-09  1.1098e-09  1.1098e-09  1.1098e-09  1.1098e-09  1.1098e-09
  1.1098e-09  1.1098e-09  1.1098e-09  1.1098e-09  1.1098e-09  1.1098e-09  1.1098e-09  1.1098e-09  1.1098e-09  1.1098e-09
  1.1098e-09  1.1098e-09  1.1098e-09  1.1098e-09  1.1098e-09  1.1098e-09  1.1098e-09  1.1098e-09  1.1098e-09  1.1098e-09
  1.1098e-09  1.1098e-09  1.1098e-09  1.1098e-09  1.1098e-09  1.1098e-09  1.1098e-09  1.1098e-09  1.1098e-09
  1.1098e-09  1.1098e-09  1.1098e-09  1.1098e-09  1.1098e-09  1.1098e-09  1.1098e-09  1.1098e-09  1.1098e-09  1.1098e-09
  1.1098e-09  1.1098e-09  1.1098e-09  1.1098e-09  1.1098e-09  1.1098e-09  1.1098e-09  1.1098e-09  1.1098e-09  1.1098e-09
  1.1098e-09  1.1098e-09  1.1098e-09  1.1098e-09  1.1098e-09  1.1098e-09  1.1098e-09  1.1098e-09  1.1098e-09  1.1098e-09
  1.1098e-09  1.1098e-09  1.1098e-09  1.1098e-09  1.1098e-09  1.1098e-09  1.1098e-09  1.1098e-09  1.1098e-09  1.1098e-09
  1.1098e-09  1.1098e-09  1.1098e-09  1.1098e-09  1.1098e-09  1.1098e-09  1.1098e-09  1.1098e-09  1.1098e-09
  1.1098e-09  1.1098e-09  1.1098e-09  1.1098e-09  1.1098e-09  1.1098e-09  1.1098e-09  1.1098e-09  1.1098e-09  1.1098e-09
  1.1098e-09  1.1098e-09  1.1098e-09  1.1098e-09  1.1098e-09  1.1098e-09  1.1098e-09  1.1098e-09  1.1098e-09  1.1098e-09
  1.1098e-09  1.1098e-09  1.1098e-09  1.1098e-09  1.1098e-09  1.1098e-09  1.1098e-09  1.1098e-09  1.1098e-09  1.1098e-09
  1.1098e-09  1.1098e-09  1.1098e-09  1.1098e-09  1.1098e-09  1.1098e-09  1.1098e-09  1.1098e-09  1.1098e-09  1.1098e-09
  1.1098e-09  1.1098e-09  1.1098e-09  1.1098e-09  1.1098e-09  1.1098e-09  1.1098e-09  1.1098e-09  1.1098e-09
  1.1098e-09  1.1098e-09  1.1098e-09  1.1098e-09  1.1098e-09  1.1098e-09  1.1098e-09  1.1098e-09  1.1098e-09  1.1098e-09
  1.1098e-09  1.1098e-09  1.1098e-09  1.1098e-09  1.1098e-09  1.1098e-09  1.1098e-09  1.1098e-09  1.1098e-09  1.1098e-09
  1.1098e-09  1.1098e-09  1.1098e-09  1.1098e-09  1.1098e-09  1.1098e-09  1.1098e-09  1.1098e-09  1.1098e-09  1.1098e-09
  1.1098e-09  1.1098e-09  1.1098e-09  1.1098e-09  1.1098e-09  1.1098e-09  1.1098e-09  1.1098e-09  1.1098e-09  1.1098e-09
  1.1098e-09  1.1098e-09  1.1098e-09  1.1098e-09  1.1098e-09  1.1098e-09  1.1098e-09  1.1098e-09  1.1098e-09
  1.1098e-09  1.1098e-09  1.1098e-09  1.1098e-09  1.1098e-09  1.1098e-09  1.1098e-09  1.1098e-09  1.1098e-09  1.1098e-09
  1.1098e-09  1.1098e-09  1.1098e-09  1.1098e-09  1.1098e-09  1.1098e-09  1.1098e-09  1.1098e-09  1.1098e-09  1.1098e-09
  1.1098e-09  1.1098e-09  1.1098e-09  1.1098e-09  1.1098e-09  1.1098e-09  1.1098e-09  1.1098e-09  1.1098e-09  1.1098e-09
  1.1098e-09  1.1098e-09  1.1098e-09  1.1098e-09  1.1098e-09  1.1098e-09  1.1098e-09  1.1098e-09  1.1098e-09  1.1098e-09
  1.1098e-09  1.1098e-09  1.1098e-09  1.1098e-09  1.1098e-09  1.1098e-09  1.1098e-09  1.1098e-09  1.1098e-09
  1.1098e-09  1.1098e-09  1.1098e-09  1.1098e-09  1.1098e-09  1.1098e-09  1.1098e-09  1.1098e-09  1.1098e-09  1.1098e-09
  1.1098e-09  1.1098e-09  1.1098e-09  1.1098e-09  1.1098e-09  1.1098e-09  1.1098e-09  1.1098e-09  1.1098e-09  1.1098e-09
  1.1098e-09  1.1098e-09  1.1098e-09  1.1098e-09  1.1098e-09  1.1098e-09  1.1098e-09  1.1098e-09  1.1098e-09  1.1098e-09
  1.1098e-09  1.1098e-09  1.1098e-09  1.1098e-09  1.1098e-09  1.1098e-09  1.1098e-09  1.1098e-09  1.1098e-09  1.1098e-09
  1.1098e-09  1.1098e-09  1.1098e-09  1.1098e-09  1.1098e-09  1.1098e-09  1.1098e-09  1.1098e-09  1.1098e-09
  1.1098e-09  1.1098e-09  1.1098e-09  1.1098e-09  1.1098e-09  1.1098e-09  1.1098e-09  1.1098e-09  1.1098e-09  1.1098e-09
  1.1098e-09  1.1098e-09  1.1098e-09  1.1098e-09  1.1098e-09  1.1098e-09  1.1098e-09  1.1098e-09  1.1098e-09  1.1098e-09
  1.1098e-09  1.1098e-09  1.1098e-09  1.1098e-09  1.1098e-09  1.1098e-09  1.1098e-09  1.1098e-09  1.1098e-09  1.1098e-09
  1.1098e-09  1.1098e-09  1.1098e-09  1.1098e-09  1.1098e-09  1.1098e-09  1.1098e-09  1.1098e-09  1.1098e-09  1.1098e-09
  1.1098e-09  1.1098e-09  1.1098e-09  1.1098e-09  1.1098e-09  1.1098e-09  1.1098e-09  1.1098e-09  1.1098e-09
  1.1098e-09  1.1098e-09  1.1098e-09  1.1098e-09  1.1098e-09  1.1098e-09  1.1098e-09  1.1098e-09  1.1098e-09  1.1098e-09
  1.1098e-09  1.1098e-09  1.1098e-09  1.1098e-09  1.1098e-09  1.1098e-09  1.1098e-09  1.1098e-09  1.1098e-09  1.1098e-09
  1.1098e-09  1.1098e-09  1.1098e-09  1.1098e-09  1.1098e-09  1.1098e-09  1.1098e-09  1.1098e-09  1.1098e-09  1.1098e-09
  1.1098e-09  1.1098e-09  1.1098e-09  1.1098e-09  1.1098e-09  1.1098e-09  1.1098e-09  1.1098e-09  1.1098e-09  1.1098e-09
  1.1098e-09  1.1098e-09  1.1098e-09  1.1098e-09  1.1098e-09  1.1098e-09  1.1098e-09  1.1098e-09  1.1098e-09
  1.1098e-09  1.1098e-09  1.1098e-09  1.1098e-09  1.1098e-09  1.1098e-09  1.1098e-09  1.1098e-09  1.1098e-09  1.1098e-09
  1.1098e-09  1.1098e-09  1.1098e-09  1.1098e-09  1.1098e-09  1.1098e-09  1.1098e-09  1.1098e-09  1.1098e-09  1.1098e-09
  1.1098e-09  1.1098e-09  1.1098e-09  1.1098e-09  1.1098e-09  1.1098e-09  1.1098e-09  1.1098e-09  1.1098e-09  1.1098e-09
  1.1098e-09  1.1098e-09  1.1098e-09  1.1098e-09  1.1098e-09  1.1098e-09  1.1098e-09  1.1098e-09  1.1098e-09  1.1098e-09
  1.1098e-09  1.1098e-09  1.1098e-09  1.1098e-09  1.1098e-09  1.1098e-09  1.1098e-09  1.1098e-09  1.1098e-09
  1.1098e-09  1.1098e-09  1.1098e-09  1.1098e-09  1.1098e-09  1.1098e-09  1.1098e-09  1.1098e-09  1.1098e-09  1.1098e-09
  1.1098e-09  1.1098e-09  1.1098e-09  1.1098e-09  1.1098e-09  1.1098e-09  1.1098e-09  1.1098e-09  1.1098e-09  1.1098e-09
  1.1098e-09  1.1098e-09  1.1098e-09  1.1098e-09  1.1098e-09  1.1098e-09  1.1098e-09  1.1098e-09  1.1098e-09  1.1098e-09
  1.1098e-09  1.1098e-09  1.1098e-09  1.1098e-09  1.1098e-09  1.1098e-09  1.1098e-09  1.1098e-09  1.1098e-09  1.1098e-09
  1.1098e-09  1.1098e-09  1.1098e-09  1.1098e-09  1.1098e-09  1.1098e-09  1.1098e-09  1.1098e-09  1.1098e-09
  1.1098e-09  1.1098e-09  1.1098e-09  1.1098e-09  1.1098e-09  1.1098e-09  1.1098e-09  1.1098e-09  1.1098e-09  1.1098e-09
  1.1098e-09  1.1098e-09  1.1098e-09  1.1098e-09  1.1098e-09  1.1098e-09  1.1098e-09  1.1098e-09  1.1098e-09  1.1098e-09
  1.1098e-09  1.1098e-09  1.1098e-09  1.1098e-09  1.1098e-09  1.1098e-09  1.1098e-09  1.1098e-09  1.1098e-09  1.1098e-09
  1.1098e-09  1.1098e-09  1.1098e-09  1.1098e-09  1.1098e-09  1.1098e-09  1.1098e-09  1.1098e-09  1.1098e-09  1.1098e-09
  1.1098e-09  1.1098e-09  1.1098e-09  1.1098e-09  1.1098e-09  1.1098e-09  1.1098e-09  1.1098e-09  1.1098e-09
  1.1098e-09  1.1098e-09  1.1098e-09  1.1098e-09  1.1098e-09  1.1098e-09  1.1098e-09  1.1098e-09  1.1098e-09  1.1098e-09
  1.1098e-09  1.1098e-09  1.1098e-09  1.1098e-09  1.1098e-09  1.1098e-09  1.1098e-09  1.1098e-09  1.1098e-09  1.1098e-09
  1.1098e-09  1.1098e-09  1.1098e-09  1.1098e-09  1.1098e-09  1.1098e-09  1.1098e-09  1.1098e-09  1.1098e-09  1.1098e-09
  1.1098e-09  1.1098e-09  1.1098e-09  1.1098e-09  1.1098e-09  1.1098e-09  1.1098e-09  1.1098e-09  1.1098e-09  1.1098e-09
  1.1098e-09  1.1098e-09  1.1098e-09  1.1098e-09  1.1098e-09  1.1098e-09  1.1098e-09  1.1098e-09  1.1098e-09
  1.1098e-09  1.1098e-09  1.1098e-09  1.1098e-09  1.1098e-09  1.1098e-09  1.1098e-09  1.1098e-09  1.1098e-09  1.1098e-09
  1.1098e-09  1.1098e-09  1.1098e-09  1.1098e-09  1.1098e-09  1.1098e-09  1.1098e-09  1.1098e-09  1.1098e-09  1.1098e-09
  1.1098e-09  1.1098e-09  1.1098e-09  1.1098e-09  1.1098e-09  1.1098e-09  1.1098e-09  1.1098e-09  1.1098e-09  1.1098e-09
  1.1098e-09  1.1098e-09  1.1098e-09  1.1098e-09  1.1098e-09  1.1098e-09  1.1098e-09  1.1098e-09  1.1098e-09  1.1098e-09
  1.1098e-09  1.1098e-09  1.1098e-09  1.1098e-09  1.1098e-09  1.1098e-09  1.1098e-09  1.1098e-09  1.1098e-09
  1.1098e-09  1.1098e-09  1.1098e-09  1.1098e-09  1.1098e-09  1.1098e-09  1.1098e-09  1.1098e-09  1.1098e-09  1.1098e-09
  1.1098e-09  1.1098e-09  1.1098e-09  1.1098e-09  1.1098e-09  1.1098e-09  1.1098e-09  1.1098e-09  1.1098e-09  1.1098e-09
  1.1098e-09  1.1098e-09  1.1098e-09  1.1098e-09  1.1098e-09  1.1098e-09  1.1098e-09  1.1098e-09  1.1098e-09  1.1098e-09
  1.1098e-09  1.1098e-09  1.1098e-09  1.1098e-09  1.1098e-09  1.1098e-09  1.1098e-09  1.1098e-09  1.1098e-09  1.1098e-09
  1.1098e-09  1.1098e-09  1.1098e-09  1.1098e-09  1.1098e-09  1.1098e-09  1.1098e-09  1.1098e-09  1.1098e-09
  1.1098e-09  1.1098e-09  1.1098e-09  1.1098e-09  1.1098e-09  1.1098e-09  1.1098e-09  1.1098e-09  1.1098e-09  1.1098e-09
  1.1098e-09  1.1098e-09  1.1098e-09  1.1098e-09  1.1098e-09  1.1098e-09  1.1098e-09  1.1098e-09  1.1098e-09  1.1098e-09
  1.1098e-09  1.1098e-09  1.1098e-09  1.1098e-09  1.1098e-09  1.1098e-09  1.1098e-09  1.1098e-09  1.1098e-09  1.1098e-09
  1.1098e-09  1.1098e-09  1.1098e-09  1.1098e-09  1.1098e-09  1.1098e-09  1.1098e-09  1.1098e-09  1.1098e-09  1.1098e-09
  1.1098e-09  1.1098e-09  1.1098e-09  1.1098e-09  1.1098e-09  1.1098e-09  1.1098e-09  1.1098e-09  1.1098e-09
  1.1098e-09  1.1098e-09  1.1098e-09  1.1098e-09  1.1098e-09  1.1098e-09  1.1098e-09  1.1098e-09  1.1098e-09  1.1098e-09
  1.1098e-09  1.1098e-09  1.1098e-09  1.1098e-09  1.1098e-09  1.1098e-09  1.1098e-09  1.1098e-09  1.1098e-09  1.1098e-09
  1.1098e-09  1.1098e-09  1.1098e-09  1.1098e-09  1.1098e-09  1.1098e-09  1.1098e-09  1.1098e-09  1.1098e-09  1.1098e-09
  1.1098e-09  1.1098e-09  1.1098e-09  1.1098e-09  1.1098e-09  1.1098e-09  1.1098e-09  1.1098e-09  1.1098e-09  1.1098e-09
  1.1098e-09  1.1098e-09  1.1098e-09  1.1098e-09  1.1098e-09  1.1098e-09  1.1098e-09  1.1098e-09  1.1098e-09
  1.1098e-09  1.1098e-09  1.1098e-09  1.1098e-09  1.1098e-09  1.1098e-09  1.1098e-09  1.1098e-09  1.1098e-09  1.1098e-09
  1.1098e-09  1.1098e-09  1.1098e-09  1.1098e-09  1.1098e-09  1.1098e-09  1.1098e-09  1.1098e-09  1.1098e-09  1.1098e-09
  1.1098e-09  1.1098e-09  1.1098e-09  1.1098e-09  1.1098e-09  1.1098e-09  1.1098e-09  1.1098e-09  1.1098e-09  1.1098e-09
  1.1098e-09  1.1098e-09  1.1098e-09  1.1098e-09  1.1098e-09  1.1098e-09  1.1098e-09  1.1098e-09  1.1098e-09  1.1098e-09
  1.1098e-09  1.1098e-09  1.1098e-09  1.1098e-09  1.1098e-09  1.1098e-09  1.1098e-09  1.1098e-09  1.1098e-09
  1.1098e-09  1.1098e-09  1.1098e-09  1.1098e-09  1.1098e-09  1.1098e-09  1.1098e-09  1.1098e-09  1.1098e-09  1.1098e-09
  1.1098e-09  1.1098e-09  1.1098e-09  1.1098e-09  1.1098e-09  1.1098e-09  1.1098e-09  1.1098e-09  1.1098e-09  1.1098e-09
  1.1098e-09  1.1098e-09  1.1098e-09  1.1098e-09  1.1098e-09  1.1098e-09  1.1098e-09  1.1098e-09  1.1098e-09  1.1098e-09
  1.1098e-09  1.1098e-09  1.1098e-09  1.1098e-09  1.1098e-09  1.1098e-09  1.1098e-09  1.1098e-09  1.1098e-09  1.1098e-09
  1.1098e-09  1.1098e-09  1.1098e-09  1.1098e-09  1.1098e-09  1.1098e-09  1.1098e-09  1.1098e-09  1.1098e-09
  1.1098e-09  1.1098e-09  1.1098e-09  1.1098e-09  1.1098e-09  1.1098e-09  1.1098e-09  1.1098e-09  1.1098e-09  1.1098e-09
  1.1098e-09  1.1098e-09  1.1098e-09  1.1098e-09  1.1098e-09  1.1098e-09  1.1098e-09  1.1098e-09  1.1098e-09  1.1098e-09
  1.1098e-09  1.1098e-09  1.1098e-09  1.1098e-09  1.1098e-09  1.1098e-09  1.1098e-09  1.1098e-09  1.1098e-09  1.1098e-09
  1.1098e-09  1.1098e-09  1.1098e-09  1.1098e-09  1.1098e-09  1.1098e-09  1.1098e-09  1.1098e-09  1.1098e-09  1.1098e-09
  1.1098e-09  1.1098e-09  1.1098e-09  1.1098e-09  1.1098e-09  1.1098e-09  1.1098e-09  1.1098e-09  1.1098e-09
  1.1098e-09  1.1098e-09  1.1098e-09  1.1098e-09  1.1098e-09  1.1098e-09  1.1098e-09  1.1098e-09  1.1098e-09  1.1098e-09
  1.1098e-09  1.1098e-09  1.1098e-09  1.1098e-09  1.1098e-09  1.1098e-09  1.1098e-09  1.1098e-09  1.1098e-09  1.1098e-09
  1.1098e-09  1.1098e-09  1.1098e-09  1.1098e-09  1.1098e-09  1.1098e-09  1.1098e-09  1.1098e-09  1.1098e-09  1.1098e-09
  1.1098e-09  1.1098e-09  1.1098e-09  1.1098e-09  1.1098e-09  1.1098e-09  1.1098e-09  1.1098e-09  1.1098e-09  1.1098e-09
  1.1098e-09  1.1098e-09  1.1098e-09  1.1098e-09  1.1098e-09  1.1098e-09  1.1098e-09  1.1098e-09  1.1098e-09
  1.1098e-09  1.1098e-09  1.1098e-09  1.1098e-09  1.1098e-09  1.1098e-09  1.1098e-09  1.1098e-09  1.1098e-09  1.1098e-09
  1.1098e-09  1.1098e-09  1.1098e-09  1.1098e-09  1.1098e-09  1.1098e-09  1.1098e-09  1.1098e-09  1.1098e-09  1.1098e-09
  1.1098e-09  1.1098e-09  1.1098e-09  1.1098e-09  1.1098e-09  1.1098e-09  1.1098e-09  1.1098e-09  1.1098e-09  1.1098e-09
  1.1098e-09  1.1098e-09  1.1098e-09  1.1098e-09  1.1098e-09  1.1098e-09  1.1098e-09  1.1098e-09  1.1098e-09  1.1098e-09
  1.1098e-09  1.1098e-09  1.1098e-09  1.1098e-09  1.1098e-09  1.1098e-09  1.1098e-09  1.1098e-09  1.1098e-09
  1.1098e-09  1.1098e-09  1.1098e-09  1.1098e-09  1.1098e-09  1.1098e-09  1.1098e-09  1.1098e-09  1.1098e-09  1.1098e-09
  1.1098e-09  1.1098e-09  1.1098e-09  1.1098e-09  1.1098e-09  1.1098e-09  1.1098e-09  1.1098e-09  1.1098e-09  1.1098e-09
  1.1098e-09  1.1098e-09  1.1098e-09  1.1098e-09  1.1098e-09  1.1098e-09  1.1098e-09  1.1098e-09  1.1098e-09  1.1098e-09
  1.1098e-09  1.1098e-09  1.1098e-09  1.1098e-09  1.1098e-09  1.1098e-09  1.1098e-09  1.1098e-09  1.1098e-09  1.1098e-09
  1.1098e-09  1.1098e-09  1.1098e-09  1.1098e-09  1.1098e-09  1.1098e-09  1.1098e-09  1.1098e-09  1.1098e-09
  1.1098e-09  1.1098e-09  1.1098e-09  1.1098e-09  1.1098e-09  1.1098e-09  1.1098e-09  1.1098e-09  1.1098e-09  1.1098e-09
  1.1098e-09  1.1098e-09  1.1098e-09  1.1098e-09  1.1098e-09  1.1098e-09  1.1098e-09  1.1098e-09  1.1098e-09  1.1098e-09
  1.1098e-09  1.1098e-09  1.1098e-09  1.1098e-09  1.1098e-09  1.1098e-09  1.1098e-09  1.1098e-09  1.1098e-09  1.1098e-09
  1.1098e-09  1.1098e-09  1.1098e-09  1.1098e-09  1.1098e-09  1.1098e-09  1.1098e-09  1.1098e-09  1.1098e-09  1.1098e-09
  1.1098e-09  1.1098e-09  1.1098e-09  1.1098e-09  1.1098e-09  1.1098e-09  1.1098e-09  1.1098e-09  1.1098e-09
  1.1098e-09  1.1098e-09  1.1098e-09  1.1098e-09  1.1098e-09  1.1098e-09  1.1098e-09  1.1098e-09  1.1098e-09  1.1098e-09
  1.1098e-09  1.1098e-09  1.1098e-09  1.1098e-09  1.1098e-09  1.1098e-09  1.1098e-09  1.1098e-09  1.1098e-09  1.1098e-09
  1.1098e-09  1.1098e-09  1.1098e-09  1.1098e-09  1.1098e-09  1.1098e-09  1.1098e-09  1.1098e-09  1.1098e-09  1.1098e-09
  1.1098e-09  1.1098e-09  1.1098e-09  1.1098e-09  1.1098e-09  1.1098e-09  1.1098e-09  1.1098e-09  1.1098e-09  1.1098e-09
  1.1098e-09  1.1098e-09  1.1098e-09  1.1098e-09  1.1098e-09  1.1098e-09  1.1098e-09  1.1098e-09  1.1098e-09
  1.1098e-09  1.1098e-09  1.1098e-09  1.1098e-09  1.1098e-09  1.1098e-09  1.1098e-09  1.1098e-09  1.1098e-09  1.1098e-09
  1.1098e-09  1.1098e-09  1.1098e-09  1.1098e-09  1.1098e-09  1.1098e-09  1.1098e-09  1.1098e-09  1.1098e-09  1.1098e-09
  1.1098e-09  1.1098e-09  1.1098e-09  1.1098e-09  1.1098e-09  1.1098e-09  1.1098e-09  1.1098e-09  1.1098e-09  1.1098e-09
  1.1098e-09  1.1098e-09  1.1098e-09  1.1098e-09  1.1098e-09  1.1098e-09  1.1098e-09  1.1098e-09  1.1098e-09  1.1098e-09
  1.1098e-09  1.1098e-09  1.1098e-09  1.1098e-09  1.1098e-09  1.1098e-09  1.1098e-09  1.1098e-09  1.1098e-09
  1.1098e-09  1.1098e-09  1.1098e-09  1.1098e-09  1.1098e-09  1.1098e-09  1.1098e-09  1.1098e-09  1.1098e-09  1.1098e-09
  1.1098e-09  1.1098e-09  1.1098e-09  1.1098e-09  1.1098e-09  1.1098e-09  1.1098e-09  1.1098e-09  1.1098e-09  1.1098e-09
  1.1098e-09  1.1098e-09  1.1098e-09  1.1098e-09  1.1098e-09  1.1098e-09  1.1098e-09  1.1098e-09  1.1098e-09  1.1098e-09
  1.1098e-09  1.1098e-09  1.1098e-09  1.1098e-09  1.1098e-09  1.1098e-09  1.1098e-09  1.1098e-09  1.1098e-09  1.1098e-09
  1.1098e-09  1.1098e-09  1.1098e-09  1.1098e-09  1.1098e-09  1.1098e-09  1.1098e-09  1.1098e-09  1.1098e-09
  1.1098e-09  1.1098e-09  1.1098e-09  1.1098e-09  1.1098e-09  1.1098e-09  1.1098e-09  1.1098e-09  1.1098e-09  1.1098e-09
  1.1098e-09  1.1098e-09  1.1098e-09  1.1098e-09  1.1098e-09  1.1098e-09  1.1098e-09  1.1098e-09  1.1098e-09  1.1098e-09
  1.1098e-09  1.1098e-09  1.1098e-09  1.1098e-09  1.1098e-09  1.1098e-09  1.1098e-09  1.1098e-09  1.1098e-09  1.1098e-09
  1.1098e-09  1.1098e-09  1.1098e-09  1.1098e-09  1.1098e-09  1.1098e-09  1.1098e-09  1.1098e-09  1.1098e-09  1.1098e-09
  1.1098e-09  1.1098e-09  1.1098e-09  1.1098e-09  1.1098e-09  1.1098e-09  1.1098e-09  1.1098e-09  1.1098e-09
  1.1098e-09  1.1098e-09  1.1098e-09  1.1098e-09  1.1098e-09  1.1098e-09  1.1098e-09  1.1098e-09  1.1098e-09  1.1098e-09
  1.1098e-09  1.1098e-09  1.1098e-09  1.1098e-09  1.1098e-09  1.1098e-09  1.1098e-09  1.1098e-09  1.1098e-09  1.1098e-09
  1.1098e-09  1.1098e-09  1.1098e-09  1.1098e-09  1.1098e-09  1.1098e-09  1.1098e-09  1.1098e-09  1.1098e-09  1.1098e-09
  1.1098e-09  1.1098e-09  1.1098e-09  1.1098e-09  1.1098e-09  1.1098e-09  1.1098e-09  1.1098e-09  1.1098e-09  1.1098e-09
  1.1098e-09  1.1098e-09  1.1098e-09  1.1098e-09  1.1098e-09  1.1098e-09  1.1098e-09  1.1098e-09  1.1098e-09
  1.1098e-09  1.1098e-09  1.1098e-09  1.1098e-09  1.1098e-09  1.1098e-09  1.1098e-09  1.1098e-09  1.1098e-09  1.1098e-09
  1.1098e-09  1.1098e-09  1.1098e-09  1.1098e-09  1.1098e-09  1.1098e-09  1.1098e-09  1.1098e-09  1.1098e-09  1.1098e-09
  1.1098e-09  1.1098e-09  1.1098e-09  1.1098e-09  1.1098e-09  1.1098e-09  1.1098e-09  1.1098e-09  1.1098e-09  1.1098e-09
  1.1098e-09  1.1098e-09  1.1098e-09  1.1098e-09  1.1098e-09  1.1098e-09  1.1098e-09  1.1098e-09  1.1098e-09  1.1098e-09
  1.1098e-09  1.1098e-09  1.1098e-09  1.1098e-09  1.1098e-09  1.1098e-09  1.1098e-09  1.1098e-09  1.1098e-09
  1.1098e-09  1.1098e-09  1.1098e-09  1.1098e-09  1.1098e-09  1.1098e-09  1.1098e-09  1.1098e-09  1.1098e-09  1.1098e-09
  1.1098e-09  1.1098e-09  1.1098e-09  1.1098e-09  1.1098e-09  1.1098e-09  1.1098e-09  1.1098e-09  1.1098e-09  1.1098e-09
  1.1098e-09  1.1098e-09  1.1098e-09  1.1098e-09  1.1098e-09  1.1098e-09  1.1098e-09  1.1098e-09  1.1098e-09  1.1098e-09
  1.1098e-09  1.1098e-09  1.1098e-09  1.1098e-09  1.1098e-09  1.1098e-09  1.1098e-09  1.1098e-09  1.1098e-09  1.1098e-09
  1.1098e-09  1.1098e-09  1.1098e-09  1.1098e-09  1.1098e-09  1.1098e-09  1.1098e-09  1.1098e-09  1.1098e-09
  1.1098e-09  1.1098e-09  1.1098e-09  1.1098e-09  1.1098e-09  1.1098e-09  1.1098e-09  1.1098e-09  1.1098e-09  1.1098e-09
  1.1098e-09  1.1098e-09  1.1098e-09  1.1098e-09  1.1098e-09  1.1098e-09  1.1098e-09  1.1098e-09  1.1098e-09  1.1098e-09
  1.1098e-09  1.1098e-09  1.1098e-09  1.1098e-09  1.1098e-09  1.1098e-09  1.1098e-09  1.1098e-09  1.1098e-09  1.1098e-09
  1.1098e-09  1.1098e-09  1.1098e-09  1.1098e-09  1.1098e-09  1.1098e-09  1.1098e-09  1.1098e-09  1.1098e-09  1.1098e-09
  1.1098e-09  1.1098e-09  1.1098e-09  1.1098e-09  1.1098e-09  1.1098e-09  1.1098e-09  1.1098e-09  1.1098e-09
  1.1098e-09  1.1098e-09  1.1098e-09  1.1098e-09  1.1098e-09  1.1098e-09  1.1098e-09  1.1098e-09  1.1098e-09  1.1098e-09
  1.1098e-09  1.1098e-09  1.1098e-09  1.1098e-09  1.1098e-09  1.1098e-09  1.1098e-09  1.1098e-09  1.1098e-09  1.1098e-09
  1.1098e-09  1.1098e-09  1.1098e-09  1.1098e-09  1.1098e-09  1.1098e-09  1.1098e-09  1.1098e-09  1.1098e-09  1.1098e-09
  1.1098e-09  1.1098e-09  1.1098e-09  1.1098e-09  1.1098e-09  1.1098e-09  1.1098e-09  1.1098e-09  1.1098e-09  1.1098e-09