# MODFLOW2000 Layer Property Flow (LPF) Package
        50  -1.000000e+030         0
  0  0  0  0  0  0  0  0  0
  0  0  0  0  0  0  0  0  0
  1.000000e+000  1.000000e+000  1.000000e+000  1.000000e+000  1.000000e+000  1.000000e+000  1.000000e+000  1.000000e+000  1.000000e+000
 0 0 0 0 0 0 0 0 0
 0 0 0 0 0 0 0 0 0
        10     1.000(10e12.4)                   -1     HYDRAULIC CONDUCTIVITY Layer   1
  1.0000e-06  1.0000e-06  1.0000e-06  1.0000e-06  1.0000e-06  1.0000e-06  1.0000e-06  1.0000e-06  1.0000e-06  1.0000e-06
  1.0000e-06  1.0000e-06  1.0000e-06  1.0000e-06  1.0000e-06  1.0000e-06  1.0000e-06  1.0000e-06  1.0000e-06  1.0000e-06
  1.0000e-06  1.0000e-06  1.0000e-06  1.0000e-06  1.0000e-06  1.0000e-06  1.0000e-06  1.0000e-06  1.0000e-06  1.0000e-06
  1.0000e-06  1.0000e-06  1.0000e-06  1.0000e-06  1.0000e-06  1.0000e-06  1.0000e-06  1.0000e-06  1.0000e-06  1.0000e-06
  1.0000e-06  1.0000e-06  1.0000e-06  1.0000e-06  1.0000e-06  1.0000e-06  1.0000e-06  1.0000e-06  1.0000e-06
  1.0000e-06  1.0000e-06  1.0000e-06  1.0000e-06  1.0000e-06  1.0000e-06  1.0000e-06  1.0000e-06  1.0000e-06  1.0000e-06
  1.0000e-06  1.0000e-06  1.0000e-06  1.0000e-06  1.0000e-06  1.0000e-06  1.0000e-06  1.0000e-06  1.0000e-06  1.0000e-06
  1.0000e-06  1.0000e-06  1.0000e-06  1.0000e-06  1.0000e-06  1.0000e-06  1.0000e-06  1.0000e-06  1.0000e-06  1.0000e-06
  1.0000e-06  1.0000e-06  1.0000e-06  1.0000e-06  1.0000e-06  1.0000e-06  1.0000e-06  1.0000e-06  1.0000e-06  1.0000e-06
  1.0000e-06  1.0000e-06  1.0000e-06  1.0000e-06  1.0000e-06  1.0000e-06  1.0000e-06  1.0000e-06  1.0000e-06
  1.0000e-06  1.0000e-06  1.0000e-06  1.0000e-06  1.0000e-06  1.0000e-06  1.0000e-06  1.0000e-06  1.0000e-06  1.0000e-06
  1.0000e-06  1.0000e-06  1.0000e-06  1.0000e-06  1.0000e-06  1.0000e-06  1.0000e-06  1.0000e-06  1.0000e-06  1.0000e-06
  1.0000e-06  1.0000e-06  1.0000e-06  1.0000e-06  1.0000e-06  1.0000e-06  1.0000e-06  1.0000e-06  1.0000e-06  1.0000e-06
  1.0000e-06  1.0000e-06  1.0000e-06  1.0000e-06  1.0000e-06  1.0000e-06  1.0000e-06  1.0000e-06  1.0000e-06  1.0000e-06
  1.0000e-06  1.0000e-06  1.0000e-06  1.0000e-06  1.0000e-06  1.0000e-06  1.0000e-06  1.0000e-06  1.0000e-06
  1.0000e-06  1.0000e-06  1.0000e-06  1.0000e-06  1.0000e-06  1.0000e-06  1.0000e-06  1.0000e-06  1.0000e-06  1.0000e-06
  1.0000e-06  1.0000e-06  1.0000e-06  1.0000e-06  1.0000e-06  1.0000e-06  1.0000e-06  1.0000e-06  1.0000e-06  1.0000e-06
  1.0000e-06  1.0000e-06  1.0000e-06  1.0000e-06  1.0000e-06  1.0000e-06  1.0000e-06  1.0000e-06  1.0000e-06  1.0000e-06
  1.0000e-06  1.0000e-06  1.0000e-06  1.0000e-06  1.0000e-06  1.0000e-06  1.0000e-06  1.0000e-06  1.0000e-06  1.0000e-06
  1.0000e-06  1.0000e-06  1.0000e-06  1.0000e-06  1.0000e-06  1.0000e-06  1.0000e-06  1.0000e-06  1.0000e-06
  1.0000e-06  1.0000e-06  1.0000e-06  1.0000e-06  1.0000e-06  1.0000e-06  1.0000e-06  1.0000e-06  1.0000e-06  1.0000e-06
  1.0000e-06  1.0000e-06  1.0000e-06  1.0000e-06  1.0000e-06  1.0000e-06  1.0000e-06  1.0000e-06  1.0000e-06  1.0000e-06
  1.0000e-06  1.0000e-06  1.0000e-06  1.0000e-06  1.0000e-06  1.0000e-06  1.0000e-06  1.0000e-06  1.0000e-06  1.0000e-06
  1.0000e-06  1.0000e-06  1.0000e-06  1.0000e-06  1.0000e-06  1.0000e-06  1.0000e-06  1.0000e-06  1.0000e-06  1.0000e-06
  1.0000e-06  1.0000e-06  1.0000e-06  1.0000e-06  1.0000e-06  1.0000e-06  1.0000e-06  1.0000e-06  1.0000e-06
  1.0000e-06  1.0000e-06  1.0000e-06  1.0000e-06  1.0000e-06  1.0000e-06  1.0000e-06  1.0000e-06  1.0000e-06  1.0000e-06
  1.0000e-06  1.0000e-06  1.0000e-06  1.0000e-06  1.0000e-06  1.0000e-06  1.0000e-06  1.0000e-06  1.0000e-06  1.0000e-06
  1.0000e-06  1.0000e-06  1.0000e-06  1.0000e-06  1.0000e-06  1.0000e-06  1.0000e-06  1.0000e-06  1.0000e-06  1.0000e-06
  1.0000e-06  1.0000e-06  1.0000e-06  1.0000e-06  1.0000e-06  1.0000e-06  1.0000e-06  1.0000e-06  1.0000e-06  1.0000e-06
  1.0000e-06  1.0000e-06  1.0000e-06  1.0000e-06  1.0000e-06  1.0000e-06  1.0000e-06  1.0000e-06  1.0000e-06
  1.0000e-06  1.0000e-06  1.0000e-06  1.0000e-06  1.0000e-06  1.0000e-06  1.0000e-06  1.0000e-06  1.0000e-06  1.0000e-06
  1.0000e-06  1.0000e-06  1.0000e-06  1.0000e-06  1.0000e-06  1.0000e-06  1.0000e-06  1.0000e-06  1.0000e-06  1.0000e-06
  1.0000e-06  1.0000e-06  1.0000e-06  1.0000e-06  1.0000e-06  1.0000e-06  1.0000e-06  1.0000e-06  1.0000e-06  1.0000e-06
  1.0000e-06  1.0000e-06  1.0000e-06  1.0000e-06  1.0000e-06  1.0000e-06  1.0000e-06  1.0000e-06  1.0000e-06  1.0000e-06
  1.0000e-06  1.0000e-06  1.0000e-06  1.0000e-06  1.0000e-06  1.0000e-06  1.0000e-06  1.0000e-06  1.0000e-06
  1.0000e-06  1.0000e-06  1.0000e-06  1.0000e-06  1.0000e-06  1.0000e-06  1.0000e-06  1.0000e-06  1.0000e-06  1.0000e-06
  1.0000e-06  1.0000e-06  1.0000e-06  1.0000e-06  1.0000e-06  1.0000e-06  1.0000e-06  1.0000e-06  1.0000e-06  1.0000e-06
  1.0000e-06  1.0000e-06  1.0000e-06  1.0000e-06  1.0000e-06  1.0000e-06  1.0000e-06  1.0000e-06  1.0000e-06  1.0000e-06
  1.0000e-06  1.0000e-06  1.0000e-06  1.0000e-06  1.0000e-06  1.0000e-06  1.0000e-06  1.0000e-06  1.0000e-06  1.0000e-06
  1.0000e-06  1.0000e-06  1.0000e-06  1.0000e-06  1.0000e-06  1.0000e-06  1.0000e-06  1.0000e-06  1.0000e-06
  1.0000e-06  1.0000e-06  1.0000e-06  1.0000e-06  1.0000e-06  1.0000e-06  1.0000e-06  1.0000e-06  1.0000e-06  1.0000e-06
  1.0000e-06  1.0000e-06  1.0000e-06  1.0000e-06  1.0000e-06  1.0000e-06  1.0000e-06  1.0000e-06  1.0000e-06  1.0000e-06
  1.0000e-06  1.0000e-06  1.0000e-06  1.0000e-06  1.0000e-06  1.0000e-06  1.0000e-06  1.0000e-06  1.0000e-06  1.0000e-06
  1.0000e-06  1.0000e-06  1.0000e-06  1.0000e-06  1.0000e-06  1.0000e-06  1.0000e-06  1.0000e-06  1.0000e-06  1.0000e-06
  1.0000e-06  1.0000e-06  1.0000e-06  1.0000e-06  1.0000e-06  1.0000e-06  1.0000e-06  1.0000e-06  1.0000e-06
  1.0000e-06  1.0000e-06  1.0000e-06  1.0000e-06  1.0000e-06  1.0000e-06  1.0000e-06  1.0000e-06  1.0000e-06  1.0000e-06
  1.0000e-06  1.0000e-06  1.0000e-06  1.0000e-06  1.0000e-06  1.0000e-06  1.0000e-06  1.0000e-06  1.0000e-06  1.0000e-06
  1.0000e-06  1.0000e-06  1.0000e-06  1.0000e-06  1.0000e-06  1.0000e-06  1.0000e-06  1.0000e-06  1.0000e-06  1.0000e-06
  1.0000e-06  1.0000e-06  1.0000e-06  1.0000e-06  1.0000e-06  1.0000e-06  1.0000e-06  1.0000e-06  1.0000e-06  1.0000e-06
  1.0000e-06  1.0000e-06  1.0000e-06  1.0000e-06  1.0000e-06  1.0000e-06  1.0000e-06  1.0000e-06  1.0000e-06
  1.0000e-06  1.0000e-06  1.0000e-06  1.0000e-06  1.0000e-06  1.0000e-06  1.0000e-06  1.0000e-06  1.0000e-06  1.0000e-06
  1.0000e-06  1.0000e-06  1.0000e-06  1.0000e-06  1.0000e-06  1.0000e-06  1.0000e-06  1.0000e-06  1.0000e-06  1.0000e-06
  1.0000e-06  1.0000e-06  1.0000e-06  1.0000e-06  1.0000e-06  1.0000e-06  1.0000e-06  1.0000e-06  1.0000e-06  1.0000e-06
  1.0000e-06  1.0000e-06  1.0000e-06  1.0000e-06  1.0000e-06  1.0000e-06  1.0000e-06  1.0000e-06  1.0000e-06  1.0000e-06
  1.0000e-06  1.0000e-06  1.0000e-06  1.0000e-06  1.0000e-06  1.0000e-06  1.0000e-06  1.0000e-06  1.0000e-06
  1.0000e-06  1.0000e-06  1.0000e-06  1.0000e-06  1.0000e-06  1.0000e-06  1.0000e-06  1.0000e-06  1.0000e-06  1.0000e-06
  1.0000e-06  1.0000e-06  1.0000e-06  1.0000e-06  1.0000e-06  1.0000e-06  1.0000e-06  1.0000e-06  1.0000e-06  1.0000e-06
  1.0000e-06  1.0000e-06  1.0000e-06  1.0000e-06  1.0000e-06  1.0000e-06  1.0000e-06  1.0000e-06  1.0000e-06  1.0000e-06
  1.0000e-06  1.0000e-06  1.0000e-06  1.0000e-06  1.0000e-06  1.0000e-06  1.0000e-06  1.0000e-06  1.0000e-06  1.0000e-06
  1.0000e-06  1.0000e-06  1.0000e-06  1.0000e-06  1.0000e-06  1.0000e-06  1.0000e-06  1.0000e-06  1.0000e-06
  1.0000e-06  1.0000e-06  1.0000e-06  1.0000e-06  1.0000e-06  1.0000e-06  1.0000e-06  1.0000e-06  1.0000e-06  1.0000e-06
  1.0000e-06  1.0000e-06  1.0000e-06  1.0000e-06  1.0000e-06  1.0000e-06  1.0000e-06  1.0000e-06  1.0000e-06  1.0000e-06
  1.0000e-06  1.0000e-06  1.0000e-06  1.0000e-06  1.0000e-06  1.0000e-06  1.0000e-06  1.0000e-06  1.0000e-06  1.0000e-06
  1.0000e-06  1.0000e-06  1.0000e-06  1.0000e-06  1.0000e-06  1.0000e-06  1.0000e-06  1.0000e-06  1.0000e-06  1.0000e-06
  1.0000e-06  1.0000e-06  1.0000e-06  1.0000e-06  1.0000e-06  1.0000e-06  1.0000e-06  1.0000e-06  1.0000e-06
  1.0000e-06  1.0000e-06  1.0000e-06  1.0000e-06  1.0000e-06  1.0000e-06  1.0000e-06  1.0000e-06  1.0000e-06  1.0000e-06
  1.0000e-06  1.0000e-06  1.0000e-06  1.0000e-06  1.0000e-06  1.0000e-06  1.0000e-06  1.0000e-06  1.0000e-06  1.0000e-06
  1.0000e-06  1.0000e-06  1.0000e-06  1.0000e-06  1.0000e-06  1.0000e-06  1.0000e-06  1.0000e-06  1.0000e-06  1.0000e-06
  1.0000e-06  1.0000e-06  1.0000e-06  1.0000e-06  1.0000e-06  1.0000e-06  1.0000e-06  1.0000e-06  1.0000e-06  1.0000e-06
  1.0000e-06  1.0000e-06  1.0000e-06  1.0000e-06  1.0000e-06  1.0000e-06  1.0000e-06  1.0000e-06  1.0000e-06
  1.0000e-06  1.0000e-06  1.0000e-06  1.0000e-06  1.0000e-06  1.0000e-06  1.0000e-06  1.0000e-06  1.0000e-06  1.0000e-06
  1.0000e-06  1.0000e-06  1.0000e-06  1.0000e-06  1.0000e-06  1.0000e-06  1.0000e-06  1.0000e-06  1.0000e-06  1.0000e-06
  1.0000e-06  1.0000e-06  1.0000e-06  1.0000e-06  1.0000e-06  1.0000e-06  1.0000e-06  1.0000e-06  1.0000e-06  1.0000e-06
  1.0000e-06  1.0000e-06  1.0000e-06  1.0000e-06  1.0000e-06  1.0000e-06  1.0000e-06  1.0000e-06  1.0000e-06  1.0000e-06
  1.0000e-06  1.0000e-06  1.0000e-06  1.0000e-06  1.0000e-06  1.0000e-06  1.0000e-06  1.0000e-06  1.0000e-06
  1.0000e-06  1.0000e-06  1.0000e-06  1.0000e-06  1.0000e-06  1.0000e-06  1.0000e-06  1.0000e-06  1.0000e-06  1.0000e-06
  1.0000e-06  1.0000e-06  1.0000e-06  1.0000e-06  1.0000e-06  1.0000e-06  1.0000e-06  1.0000e-06  1.0000e-06  1.0000e-06
  1.0000e-06  1.0000e-06  1.0000e-06  1.0000e-06  1.0000e-06  1.0000e-06  1.0000e-06  1.0000e-06  1.0000e-06  1.0000e-06
  1.0000e-06  1.0000e-06  1.0000e-06  1.0000e-06  1.0000e-06  1.0000e-06  1.0000e-06  1.0000e-06  1.0000e-06  1.0000e-06
  1.0000e-06  1.0000e-06  1.0000e-06  1.0000e-06  1.0000e-06  1.0000e-06  1.0000e-06  1.0000e-06  1.0000e-06
  1.0000e-06  1.0000e-06  1.0000e-06  1.0000e-06  1.0000e-06  1.0000e-06  1.0000e-06  1.0000e-06  1.0000e-06  1.0000e-06
  1.0000e-06  1.0000e-06  1.0000e-06  1.0000e-06  1.0000e-06  1.0000e-06  1.0000e-06  1.0000e-06  1.0000e-06  1.0000e-06
  1.0000e-06  1.0000e-06  1.0000e-06  1.0000e-06  1.0000e-06  1.0000e-06  1.0000e-06  1.0000e-06  1.0000e-06  1.0000e-06
  1.0000e-06  1.0000e-06  1.0000e-06  1.0000e-06  1.0000e-06  1.0000e-06  1.0000e-06  1.0000e-06  1.0000e-06  1.0000e-06
  1.0000e-06  1.0000e-06  1.0000e-06  1.0000e-06  1.0000e-06  1.0000e-06  1.0000e-06  1.0000e-06  1.0000e-06
  1.0000e-06  1.0000e-06  1.0000e-06  1.0000e-06  1.0000e-06  1.0000e-06  1.0000e-06  1.0000e-06  1.0000e-06  1.0000e-06
  1.0000e-06  1.0000e-06  1.0000e-06  1.0000e-06  1.0000e-06  1.0000e-06  1.0000e-06  1.0000e-06  1.0000e-06  1.0000e-06
  1.0000e-06  1.0000e-06  1.0000e-06  1.0000e-06  1.0000e-06  1.0000e-06  1.0000e-06  1.0000e-06  1.0000e-06  1.0000e-06
  1.0000e-06  1.0000e-06  1.0000e-06  1.0000e-06  1.0000e-06  1.0000e-06  1.0000e-06  1.0000e-06  1.0000e-06  1.0000e-06
  1.0000e-06  1.0000e-06  1.0000e-06  1.0000e-06  1.0000e-06  1.0000e-06  1.0000e-06  1.0000e-06  1.0000e-06
  1.0000e-06  1.0000e-06  1.0000e-06  1.0000e-06  1.0000e-06  1.0000e-06  1.0000e-06  1.0000e-06  1.0000e-06  1.0000e-06
  1.0000e-06  1.0000e-06  1.0000e-06  1.0000e-06  1.0000e-06  1.0000e-06  1.0000e-06  1.0000e-06  1.0000e-06  1.0000e-06
  1.0000e-06  1.0000e-06  1.0000e-06  1.0000e-06  1.0000e-06  1.0000e-06  1.0000e-06  1.0000e-06  1.0000e-06  1.0000e-06
  1.0000e-06  1.0000e-06  1.0000e-06  1.0000e-06  1.0000e-06  1.0000e-06  1.0000e-06  1.0000e-06  1.0000e-06  1.0000e-06
  1.0000e-06  1.0000e-06  1.0000e-06  1.0000e-06  1.0000e-06  1.0000e-06  1.0000e-06  1.0000e-06  1.0000e-06
  1.0000e-06  1.0000e-06  1.0000e-06  1.0000e-06  1.0000e-06  1.0000e-06  1.0000e-06  1.0000e-06  1.0000e-06  1.0000e-06
  1.0000e-06  1.0000e-06  1.0000e-06  1.0000e-06  1.0000e-06  1.0000e-06  1.0000e-06  1.0000e-06  1.0000e-06  1.0000e-06
  1.0000e-06  1.0000e-06  1.0000e-06  1.0000e-06  1.0000e-06  1.0000e-06  1.0000e-06  1.0000e-06  1.0000e-06  1.0000e-06
  1.0000e-06  1.0000e-06  1.0000e-06  1.0000e-06  1.0000e-06  1.0000e-06  1.0000e-06  1.0000e-06  1.0000e-06  1.0000e-06
  1.0000e-06  1.0000e-06  1.0000e-06  1.0000e-06  1.0000e-06  1.0000e-06  1.0000e-06  1.0000e-06  1.0000e-06
  1.0000e-06  1.0000e-06  1.0000e-06  1.0000e-06  1.0000e-06  1.0000e-06  1.0000e-06  1.0000e-06  1.0000e-06  1.0000e-06
  1.0000e-06  1.0000e-06  1.0000e-06  1.0000e-06  1.0000e-06  1.0000e-06  1.0000e-06  1.0000e-06  1.0000e-06  1.0000e-06
  1.0000e-06  1.0000e-06  1.0000e-06  1.0000e-06  1.0000e-06  1.0000e-06  1.0000e-06  1.0000e-06  1.0000e-06  1.0000e-06
  1.0000e-06  1.0000e-06  1.0000e-06  1.0000e-06  1.0000e-06  1.0000e-06  1.0000e-06  1.0000e-06  1.0000e-06  1.0000e-06
  1.0000e-06  1.0000e-06  1.0000e-06  1.0000e-06  1.0000e-06  1.0000e-06  1.0000e-06  1.0000e-06  1.0000e-06
  1.0000e-06  1.0000e-06  1.0000e-06  1.0000e-06  1.0000e-06  1.0000e-06  1.0000e-06  1.0000e-06  1.0000e-06  1.0000e-06
  1.0000e-06  1.0000e-06  1.0000e-06  1.0000e-06  1.0000e-06  1.0000e-06  1.0000e-06  1.0000e-06  1.0000e-06  1.0000e-06
  1.0000e-06  1.0000e-06  1.0000e-06  1.0000e-06  1.0000e-06  1.0000e-06  1.0000e-06  1.0000e-06  1.0000e-06  1.0000e-06
  1.0000e-06  1.0000e-06  1.0000e-06  1.0000e-06  1.0000e-06  1.0000e-06  1.0000e-06  1.0000e-06  1.0000e-06  1.0000e-06
  1.0000e-06  1.0000e-06  1.0000e-06  1.0000e-06  1.0000e-06  1.0000e-06  1.0000e-06  1.0000e-06  1.0000e-06
  1.0000e-06  1.0000e-06  1.0000e-06  1.0000e-06  1.0000e-06  1.0000e-06  1.0000e-06  1.0000e-06  1.0000e-06  1.0000e-06
  1.0000e-06  1.0000e-06  1.0000e-06  1.0000e-06  1.0000e-06  1.0000e-06  1.0000e-06  1.0000e-06  1.0000e-06  1.0000e-06
  1.0000e-06  1.0000e-06  1.0000e-06  1.0000e-06  1.0000e-06  1.0000e-06  1.0000e-06  1.0000e-06  1.0000e-06  1.0000e-06
  1.0000e-06  1.0000e-06  1.0000e-06  1.0000e-06  1.0000e-06  1.0000e-06  1.0000e-06  1.0000e-06  1.0000e-06  1.0000e-06
  1.0000e-06  1.0000e-06  1.0000e-06  1.0000e-06  1.0000e-06  1.0000e-06  1.0000e-06  1.0000e-06  1.0000e-06
  1.0000e-06  1.0000e-06  1.0000e-06  1.0000e-06  1.0000e-06  1.0000e-06  1.0000e-06  1.0000e-06  1.0000e-06  1.0000e-06
  1.0000e-06  1.0000e-06  1.0000e-06  1.0000e-06  1.0000e-06  1.0000e-06  1.0000e-06  1.0000e-06  1.0000e-06  1.0000e-06
  1.0000e-06  1.0000e-06  1.0000e-06  1.0000e-06  1.0000e-06  1.0000e-06  1.0000e-06  1.0000e-06  1.0000e-06  1.0000e-06
  1.0000e-06  1.0000e-06  1.0000e-06  1.0000e-06  1.0000e-06  1.0000e-06  1.0000e-06  1.0000e-06  1.0000e-06  1.0000e-06
  1.0000e-06  1.0000e-06  1.0000e-06  1.0000e-06  1.0000e-06  1.0000e-06  1.0000e-06  1.0000e-06  1.0000e-06
  1.0000e-06  1.0000e-06  1.0000e-06  1.0000e-06  1.0000e-06  1.0000e-06  1.0000e-06  1.0000e-06  1.0000e-06  1.0000e-06
  1.0000e-06  1.0000e-06  1.0000e-06  1.0000e-06  1.0000e-06  1.0000e-06  1.0000e-06  1.0000e-06  1.0000e-06  1.0000e-06
  1.0000e-06  1.0000e-06  1.0000e-06  1.0000e-06  1.0000e-06  1.0000e-06  1.0000e-06  1.0000e-06  1.0000e-06  1.0000e-06
  1.0000e-06  1.0000e-06  1.0000e-06  1.0000e-06  1.0000e-06  1.0000e-06  1.0000e-06  1.0000e-06  1.0000e-06  1.0000e-06
  1.0000e-06  1.0000e-06  1.0000e-06  1.0000e-06  1.0000e-06  1.0000e-06  1.0000e-06  1.0000e-06  1.0000e-06
  1.0000e-06  1.0000e-06  1.0000e-06  1.0000e-06  1.0000e-06  1.0000e-06  1.0000e-06  1.0000e-06  1.0000e-06  1.0000e-06
  1.0000e-06  1.0000e-06  1.0000e-06  1.0000e-06  1.0000e-06  1.0000e-06  1.0000e-06  1.0000e-06  1.0000e-06  1.0000e-06
  1.0000e-06  1.0000e-06  1.0000e-06  1.0000e-06  1.0000e-06  1.0000e-06  1.0000e-06  1.0000e-06  1.0000e-06  1.0000e-06
  1.0000e-06  1.0000e-06  1.0000e-06  1.0000e-06  1.0000e-06  1.0000e-06  1.0000e-06  1.0000e-06  1.0000e-06  1.0000e-06
  1.0000e-06  1.0000e-06  1.0000e-06  1.0000e-06  1.0000e-06  1.0000e-06  1.0000e-06  1.0000e-06  1.0000e-06
  1.0000e-06  1.0000e-06  1.0000e-06  1.0000e-06  1.0000e-06  1.0000e-06  1.0000e-06  1.0000e-06  1.0000e-06  1.0000e-06
  1.0000e-06  1.0000e-06  1.0000e-06  1.0000e-06  1.0000e-06  1.0000e-06  1.0000e-06  1.0000e-06  1.0000e-06  1.0000e-06
  1.0000e-06  1.0000e-06  1.0000e-06  1.0000e-06  1.0000e-06  1.0000e-06  1.0000e-06  1.0000e-06  1.0000e-06  1.0000e-06
  1.0000e-06  1.0000e-06  1.0000e-06  1.0000e-06  1.0000e-06  1.0000e-06  1.0000e-06  1.0000e-06  1.0000e-06  1.0000e-06
  1.0000e-06  1.0000e-06  1.0000e-06  1.0000e-06  1.0000e-06  1.0000e-06  1.0000e-06  1.0000e-06  1.0000e-06
  1.0000e-06  1.0000e-06  1.0000e-06  1.0000e-06  1.0000e-06  1.0000e-06  1.0000e-06  1.0000e-06  1.0000e-06  1.0000e-06
  1.0000e-06  1.0000e-06  1.0000e-06  1.0000e-06  1.0000e-06  1.0000e-06  1.0000e-06  1.0000e-06  1.0000e-06  1.0000e-06
  1.0000e-06  1.0000e-06  1.0000e-06  1.0000e-06  1.0000e-06  1.0000e-06  1.0000e-06  1.0000e-06  1.0000e-06  1.0000e-06
  1.0000e-06  1.0000e-06  1.0000e-06  1.0000e-06  1.0000e-06  1.0000e-06  1.0000e-06  1.0000e-06  1.0000e-06  1.0000e-06
  1.0000e-06  1.0000e-06  1.0000e-06  1.0000e-06  1.0000e-06  1.0000e-06  1.0000e-06  1.0000e-06  1.0000e-06
  1.0000e-06  1.0000e-06  1.0000e-06  1.0000e-06  1.0000e-06  1.0000e-06  1.0000e-06  1.0000e-06  1.0000e-06  1.0000e-06
  1.0000e-06  1.0000e-06  1.0000e-06  1.0000e-06  1.0000e-06  1.0000e-06  1.0000e-06  1.0000e-06  1.0000e-06  1.0000e-06
  1.0000e-06  1.0000e-06  1.0000e-06  1.0000e-06  1.0000e-06  1.0000e-06  1.0000e-06  1.0000e-06  1.0000e-06  1.0000e-06
  1.0000e-06  1.0000e-06  1.0000e-06  1.0000e-06  1.0000e-06  1.0000e-06  1.0000e-06  1.0000e-06  1.0000e-06  1.0000e-06
  1.0000e-06  1.0000e-06  1.0000e-06  1.0000e-06  1.0000e-06  1.0000e-06  1.0000e-06  1.0000e-06  1.0000e-06
  1.0000e-06  1.0000e-06  1.0000e-06  1.0000e-06  1.0000e-06  1.0000e-06  1.0000e-06  1.0000e-06  1.0000e-06  1.0000e-06
  1.0000e-06  1.0000e-06  1.0000e-06  1.0000e-06  1.0000e-06  1.0000e-06  1.0000e-06  1.0000e-06  1.0000e-06  1.0000e-06
  1.0000e-06  1.0000e-06  1.0000e-06  1.0000e-06  1.0000e-06  1.0000e-06  1.0000e-06  1.0000e-06  1.0000e-06  1.0000e-06
  1.0000e-06  1.0000e-06  1.0000e-06  1.0000e-06  1.0000e-06  1.0000e-06  1.0000e-06  1.0000e-06  1.0000e-06  1.0000e-06
  1.0000e-06  1.0000e-06  1.0000e-06  1.0000e-06  1.0000e-06  1.0000e-06  1.0000e-06  1.0000e-06  1.0000e-06
  1.0000e-06  1.0000e-06  1.0000e-06  1.0000e-06  1.0000e-06  1.0000e-06  1.0000e-06  1.0000e-06  1.0000e-06  1.0000e-06
  1.0000e-06  1.0000e-06  1.0000e-06  1.0000e-06  1.0000e-06  1.0000e-06  1.0000e-06  1.0000e-06  1.0000e-06  1.0000e-06
  1.0000e-06  1.0000e-06  1.0000e-06  1.0000e-06  1.0000e-06  1.0000e-06  1.0000e-06  1.0000e-06  1.0000e-06  1.0000e-06
  1.0000e-06  1.0000e-06  1.0000e-06  1.0000e-06  1.0000e-06  1.0000e-06  1.0000e-06  1.0000e-06  1.0000e-06  1.0000e-06
  1.0000e-06  1.0000e-06  1.0000e-06  1.0000e-06  1.0000e-06  1.0000e-06  1.0000e-06  1.0000e-06  1.0000e-06
  1.0000e-06  1.0000e-06  1.0000e-06  1.0000e-06  1.0000e-06  1.0000e-06  1.0000e-06  1.0000e-06  1.0000e-06  1.0000e-06
  1.0000e-06  1.0000e-06  1.0000e-06  1.0000e-06  1.0000e-06  1.0000e-06  1.0000e-06  1.0000e-06  1.0000e-06  1.0000e-06
  1.0000e-06  1.0000e-06  1.0000e-06  1.0000e-06  1.0000e-06  1.0000e-06  1.0000e-06  1.0000e-06  1.0000e-06  1.0000e-06
  1.0000e-06  1.0000e-06  1.0000e-06  1.0000e-06  1.0000e-06  1.0000e-06  1.0000e-06  1.0000e-06  1.0000e-06  1.0000e-06
  1.0000e-06  1.0000e-06  1.0000e-06  1.0000e-06  1.0000e-06  1.0000e-06  1.0000e-06  1.0000e-06  1.0000e-06
  1.0000e-06  1.0000e-06  1.0000e-06  1.0000e-06  1.0000e-06  1.0000e-06  1.0000e-06  1.0000e-06  1.0000e-06  1.0000e-06
  1.0000e-06  1.0000e-06  1.0000e-06  1.0000e-06  1.0000e-06  1.0000e-06  1.0000e-06  1.0000e-06  1.0000e-06  1.0000e-06
  1.0000e-06  1.0000e-06  1.0000e-06  1.0000e-06  1.0000e-06  1.0000e-06  1.0000e-06  1.0000e-06  1.0000e-06  1.0000e-06
  1.0000e-06  1.0000e-06  1.0000e-06  1.0000e-06  1.0000e-06  1.0000e-06  1.0000e-06  1.0000e-06  1.0000e-06  1.0000e-06
  1.0000e-06  1.0000e-06  1.0000e-06  1.0000e-06  1.0000e-06  1.0000e-06  1.0000e-06  1.0000e-06  1.0000e-06
  1.0000e-06  1.0000e-06  1.0000e-06  1.0000e-06  1.0000e-06  1.0000e-06  1.0000e-06  1.0000e-06  1.0000e-06  1.0000e-06
  1.0000e-06  1.0000e-06  1.0000e-06  1.0000e-06  1.0000e-06  1.0000e-06  1.0000e-06  1.0000e-06  1.0000e-06  1.0000e-06
  1.0000e-06  1.0000e-06  1.0000e-06  1.0000e-06  1.0000e-06  1.0000e-06  1.0000e-06  1.0000e-06  1.0000e-06  1.0000e-06
  1.0000e-06  1.0000e-06  1.0000e-06  1.0000e-06  1.0000e-06  1.0000e-06  1.0000e-06  1.0000e-06  1.0000e-06  1.0000e-06
  1.0000e-06  1.0000e-06  1.0000e-06  1.0000e-06  1.0000e-06  1.0000e-06  1.0000e-06  1.0000e-06  1.0000e-06
  1.0000e-06  1.0000e-06  1.0000e-06  1.0000e-06  1.0000e-06  1.0000e-06  1.0000e-06  1.0000e-06  1.0000e-06  1.0000e-06
  1.0000e-06  1.0000e-06  1.0000e-06  1.0000e-06  1.0000e-06  1.0000e-06  1.0000e-06  1.0000e-06  1.0000e-06  1.0000e-06
  1.0000e-06  1.0000e-06  1.0000e-06  1.0000e-06  1.0000e-06  1.0000e-06  1.0000e-06  1.0000e-06  1.0000e-06  1.0000e-06
  1.0000e-06  1.0000e-06  1.0000e-06  1.0000e-06  1.0000e-06  1.0000e-06  1.0000e-06  1.0000e-06  1.0000e-06  1.0000e-06
  1.0000e-06  1.0000e-06  1.0000e-06  1.0000e-06  1.0000e-06  1.0000e-06  1.0000e-06  1.0000e-06  1.0000e-06
  1.0000e-06  1.0000e-06  1.0000e-06  1.0000e-06  1.0000e-06  1.0000e-06  1.0000e-06  1.0000e-06  1.0000e-06  1.0000e-06
  1.0000e-06  1.0000e-06  1.0000e-06  1.0000e-06  1.0000e-06  1.0000e-06  1.0000e-06  1.0000e-06  1.0000e-06  1.0000e-06
  1.0000e-06  1.0000e-06  1.0000e-06  1.0000e-06  1.0000e-06  1.0000e-06  1.0000e-06  1.0000e-06  1.0000e-06  1.0000e-06
  1.0000e-06  1.0000e-06  1.0000e-06  1.0000e-06  1.0000e-06  1.0000e-06  1.0000e-06  1.0000e-06  1.0000e-06  1.0000e-06
  1.0000e-06  1.0000e-06  1.0000e-06  1.0000e-06  1.0000e-06  1.0000e-06  1.0000e-06  1.0000e-06  1.0000e-06
  1.0000e-06  1.0000e-06  1.0000e-06  1.0000e-06  1.0000e-06  1.0000e-06  1.0000e-06  1.0000e-06  1.0000e-06  1.0000e-06
  1.0000e-06  1.0000e-06  1.0000e-06  1.0000e-06  1.0000e-06  1.0000e-06  1.0000e-06  1.0000e-06  1.0000e-06  1.0000e-06
  1.0000e-06  1.0000e-06  1.0000e-06  1.0000e-06  1.0000e-06  1.0000e-06  1.0000e-06  1.0000e-06  1.0000e-06  1.0000e-06
  1.0000e-06  1.0000e-06  1.0000e-06  1.0000e-06  1.0000e-06  1.0000e-06  1.0000e-06  1.0000e-06  1.0000e-06  1.0000e-06
  1.0000e-06  1.0000e-06  1.0000e-06  1.0000e-06  1.0000e-06  1.0000e-06  1.0000e-06  1.0000e-06  1.0000e-06
  1.0000e-06  1.0000e-06  1.0000e-06  1.0000e-06  1.0000e-06  1.0000e-06  1.0000e-06  1.0000e-06  1.0000e-06  1.0000e-06
  1.0000e-06  1.0000e-06  1.0000e-06  1.0000e-06  1.0000e-06  1.0000e-06  1.0000e-06  1.0000e-06  1.0000e-06  1.0000e-06
  1.0000e-06  1.0000e-06  1.0000e-06  1.0000e-06  1.0000e-06  1.0000e-06  1.0000e-06  1.0000e-06  1.0000e-06  1.0000e-06
  1.0000e-06  1.0000e-06  1.0000e-06  1.0000e-06  1.0000e-06  1.0000e-06  1.0000e-06  1.0000e-06  1.0000e-06  1.0000e-06
  1.0000e-06  1.0000e-06  1.0000e-06  1.0000e-06  1.0000e-06  1.0000e-06  1.0000e-06  1.0000e-06  1.0000e-06
  1.0000e-06  1.0000e-06  1.0000e-06  1.0000e-06  1.0000e-06  1.0000e-06  1.0000e-06  1.0000e-06  1.0000e-06  1.0000e-06
  1.0000e-06  1.0000e-06  1.0000e-06  1.0000e-06  1.0000e-06  1.0000e-06  1.0000e-06  1.0000e-06  1.0000e-06  1.0000e-06
  1.0000e-06  1.0000e-06  1.0000e-06  1.0000e-06  1.0000e-06  1.0000e-06  1.0000e-06  1.0000e-06  1.0000e-06  1.0000e-06
  1.0000e-06  1.0000e-06  1.0000e-06  1.0000e-06  1.0000e-06  1.0000e-06  1.0000e-06  1.0000e-06  1.0000e-06  1.0000e-06
  1.0000e-06  1.0000e-06  1.0000e-06  1.0000e-06  1.0000e-06  1.0000e-06  1.0000e-06  1.0000e-06  1.0000e-06
  1.0000e-06  1.0000e-06  1.0000e-06  1.0000e-06  1.0000e-06  1.0000e-06  1.0000e-06  1.0000e-06  1.0000e-06  1.0000e-06
  1.0000e-06  1.0000e-06  1.0000e-06  1.0000e-06  1.0000e-06  1.0000e-06  1.0000e-06  1.0000e-06  1.0000e-06  1.0000e-06
  1.0000e-06  1.0000e-06  1.0000e-06  1.0000e-06  1.0000e-06  1.0000e-06  1.0000e-06  1.0000e-06  1.0000e-06  1.0000e-06
  1.0000e-06  1.0000e-06  1.0000e-06  1.0000e-06  1.0000e-06  1.0000e-06  1.0000e-06  1.0000e-06  1.0000e-06  1.0000e-06
  1.0000e-06  1.0000e-06  1.0000e-06  1.0000e-06  1.0000e-06  1.0000e-06  1.0000e-06  1.0000e-06  1.0000e-06
  1.0000e-06  1.0000e-06  1.0000e-06  1.0000e-06  1.0000e-06  1.0000e-06  1.0000e-06  1.0000e-06  1.0000e-06  1.0000e-06
  1.0000e-06  1.0000e-06  1.0000e-06  1.0000e-06  1.0000e-06  1.0000e-06  1.0000e-06  1.0000e-06  1.0000e-06  1.0000e-06
  1.0000e-06  1.0000e-06  1.0000e-06  1.0000e-06  1.0000e-06  1.0000e-06  1.0000e-06  1.0000e-06  1.0000e-06  1.0000e-06
  1.0000e-06  1.0000e-06  1.0000e-06  1.0000e-06  1.0000e-06  1.0000e-06  1.0000e-06  1.0000e-06  1.0000e-06  1.0000e-06
  1.0000e-06  1.0000e-06  1.0000e-06  1.0000e-06  1.0000e-06  1.0000e-06  1.0000e-06  1.0000e-06  1.0000e-06
  1.0000e-06  1.0000e-06  1.0000e-06  1.0000e-06  1.0000e-06  1.0000e-06  1.0000e-06  1.0000e-06  1.0000e-06  1.0000e-06
  1.0000e-06  1.0000e-06  1.0000e-06  1.0000e-06  1.0000e-06  1.0000e-06  1.0000e-06  1.0000e-06  1.0000e-06  1.0000e-06
  1.0000e-06  1.0000e-06  1.0000e-06  1.0000e-06  1.0000e-06  1.0000e-06  1.0000e-06  1.0000e-06  1.0000e-06  1.0000e-06
  1.0000e-06  1.0000e-06  1.0000e-06  1.0000e-06  1.0000e-06  1.0000e-06  1.0000e-06  1.0000e-06  1.0000e-06  1.0000e-06
  1.0000e-06  1.0000e-06  1.0000e-06  1.0000e-06  1.0000e-06  1.0000e-06  1.0000e-06  1.0000e-06  1.0000e-06
  1.0000e-06  1.0000e-06  1.0000e-06  1.0000e-06  1.0000e-06  1.0000e-06  1.0000e-06  1.0000e-06  1.0000e-06  1.0000e-06
  1.0000e-06  1.0000e-06  1.0000e-06  1.0000e-06  1.0000e-06  1.0000e-06  1.0000e-06  1.0000e-06  1.0000e-06  1.0000e-06
  1.0000e-06  1.0000e-06  1.0000e-06  1.0000e-06  1.0000e-06  1.0000e-06  1.0000e-06  1.0000e-06  1.0000e-06  1.0000e-06
  1.0000e-06  1.0000e-06  1.0000e-06  1.0000e-06  1.0000e-06  1.0000e-06  1.0000e-06  1.0000e-06  1.0000e-06  1.0000e-06
  1.0000e-06  1.0000e-06  1.0000e-06  1.0000e-06  1.0000e-06  1.0000e-06  1.0000e-06  1.0000e-06  1.0000e-06
  1.0000e-06  1.0000e-06  1.0000e-06  1.0000e-06  1.0000e-06  1.0000e-06  1.0000e-06  1.0000e-06  1.0000e-06  1.0000e-06
  1.0000e-06  1.0000e-06  1.0000e-06  1.0000e-06  1.0000e-06  1.0000e-06  1.0000e-06  1.0000e-06  1.0000e-06  1.0000e-06
  1.0000e-06  1.0000e-06  1.0000e-06  1.0000e-06  1.0000e-06  1.0000e-06  1.0000e-06  1.0000e-06  1.0000e-06  1.0000e-06
  1.0000e-06  1.0000e-06  1.0000e-06  1.0000e-06  1.0000e-06  1.0000e-06  1.0000e-06  1.0000e-06  1.0000e-06  1.0000e-06
  1.0000e-06  1.0000e-06  1.0000e-06  1.0000e-06  1.0000e-06  1.0000e-06  1.0000e-06  1.0000e-06  1.0000e-06
  1.0000e-06  1.0000e-06  1.0000e-06  1.0000e-06  1.0000e-06  1.0000e-06  1.0000e-06  1.0000e-06  1.0000e-06  1.0000e-06
  1.0000e-06  1.0000e-06  1.0000e-06  1.0000e-06  1.0000e-06  1.0000e-06  1.0000e-06  1.0000e-06  1.0000e-06  1.0000e-06
  1.0000e-06  1.0000e-06  1.0000e-06  1.0000e-06  1.0000e-06  1.0000e-06  1.0000e-06  1.0000e-06  1.0000e-06  1.0000e-06
  1.0000e-06  1.0000e-06  1.0000e-06  1.0000e-06  1.0000e-06  1.0000e-06  1.0000e-06  1.0000e-06  1.0000e-06  1.0000e-06
  1.0000e-06  1.0000e-06  1.0000e-06  1.0000e-06  1.0000e-06  1.0000e-06  1.0000e-06  1.0000e-06  1.0000e-06
  1.0000e-06  1.0000e-06  1.0000e-06  1.0000e-06  1.0000e-06  1.0000e-06  1.0000e-06  1.0000e-06  1.0000e-06  1.0000e-06
  1.0000e-06  1.0000e-06  1.0000e-06  1.0000e-06  1.0000e-06  1.0000e-06  1.0000e-06  1.0000e-06  1.0000e-06  1.0000e-06
  1.0000e-06  1.0000e-06  1.0000e-06  1.0000e-06  1.0000e-06  1.0000e-06  1.0000e-06  1.0000e-06  1.0000e-06  1.0000e-06
  1.0000e-06  1.0000e-06  1.0000e-06  1.0000e-06  1.0000e-06  1.0000e-06  1.0000e-06  1.0000e-06  1.0000e-06  1.0000e-06
  1.0000e-06  1.0000e-06  1.0000e-06  1.0000e-06  1.0000e-06  1.0000e-06  1.0000e-06  1.0000e-06  1.0000e-06
  1.0000e-06  1.0000e-06  1.0000e-06  1.0000e-06  1.0000e-06  1.0000e-06  1.0000e-06  1.0000e-06  1.0000e-06  1.0000e-06
  1.0000e-06  1.0000e-06  1.0000e-06  1.0000e-06  1.0000e-06  1.0000e-06  1.0000e-06  1.0000e-06  1.0000e-06  1.0000e-06
  1.0000e-06  1.0000e-06  1.0000e-06  1.0000e-06  1.0000e-06  1.0000e-06  1.0000e-06  1.0000e-06  1.0000e-06  1.0000e-06
  1.0000e-06  1.0000e-06  1.0000e-06  1.0000e-06  1.0000e-06  1.0000e-06  1.0000e-06  1.0000e-06  1.0000e-06  1.0000e-06
  1.0000e-06  1.0000e-06  1.0000e-06  1.0000e-06  1.0000e-06  1.0000e-06  1.0000e-06  1.0000e-06  1.0000e-06
  1.0000e-06  1.0000e-06  1.0000e-06  1.0000e-06  1.0000e-06  1.0000e-06  1.0000e-06  1.0000e-06  1.0000e-06  1.0000e-06
  1.0000e-06  1.0000e-06  1.0000e-06  1.0000e-06  1.0000e-06  1.0000e-06  1.0000e-06  1.0000e-06  1.0000e-06  1.0000e-06
  1.0000e-06  1.0000e-06  1.0000e-06  1.0000e-06  1.0000e-06  1.0000e-06  1.0000e-06  1.0000e-06  1.0000e-06  1.0000e-06
  1.0000e-06  1.0000e-06  1.0000e-06  1.0000e-06  1.0000e-06  1.0000e-06  1.0000e-06  1.0000e-06  1.0000e-06  1.0000e-06
  1.0000e-06  1.0000e-06  1.0000e-06  1.0000e-06  1.0000e-06  1.0000e-06  1.0000e-06  1.0000e-06  1.0000e-06
  1.0000e-06  1.0000e-06  1.0000e-06  1.0000e-06  1.0000e-06  1.0000e-06  1.0000e-06  1.0000e-06  1.0000e-06  1.0000e-06
  1.0000e-06  1.0000e-06  1.0000e-06  1.0000e-06  1.0000e-06  1.0000e-06  1.0000e-06  1.0000e-06  1.0000e-06  1.0000e-06
  1.0000e-06  1.0000e-06  1.0000e-06  1.0000e-06  1.0000e-06  1.0000e-06  1.0000e-06  1.0000e-06  1.0000e-06  1.0000e-06
  1.0000e-06  1.0000e-06  1.0000e-06  1.0000e-06  1.0000e-06  1.0000e-06  1.0000e-06  1.0000e-06  1.0000e-06  1.0000e-06
  1.0000e-06  1.0000e-06  1.0000e-06  1.0000e-06  1.0000e-06  1.0000e-06  1.0000e-06  1.0000e-06  1.0000e-06
  1.0000e-06  1.0000e-06  1.0000e-06  1.0000e-06  1.0000e-06  1.0000e-06  1.0000e-06  1.0000e-06  1.0000e-06  1.0000e-06
  1.0000e-06  1.0000e-06  1.0000e-06  1.0000e-06  1.0000e-06  1.0000e-06  1.0000e-06  1.0000e-06  1.0000e-06  1.0000e-06