# MODFLOW2005 Discretization File
 9  61  49  1  1  2
 0 0 0 0 0 0 0 0 0
 CONSTANT 105						       DELTA-X or C
 CONSTANT 75						       DELTA-Y or R
 OPEN/CLOSE	TM9_parent.top   1    (FREE)   0                top layer 1
 CONSTANT 30      		-1			       bottom layer 1
 CONSTANT 15      		-1			       bottom layer 2
 CONSTANT  0		     	-1                       bottom layer 3
 CONSTANT -15		     	-1                       bottom layer 4
 CONSTANT -30      		-1			       bottom layer 5
 CONSTANT -45		     	-1                       bottom layer 6
 CONSTANT -60		     	-1                       bottom layer 7
 CONSTANT -75      		-1			       bottom layer 8
 CONSTANT -90		     	-1                       bottom layer 9
 1  1   1   SS