# SMS8 input file, prepared by mf5to15 on 7/9/2015 at 12:54:15.

BEGIN Options
  PRINT_OPTION SUMMARY
  COMPLEXITY  SIMPLE
END Options

BEGIN Nonlinear
  OUTER_HCLOSE   0.10000000E-05
  OUTER_MAXIMUM  20
  UNDER_RELAXATION  NONE
END Nonlinear

BEGIN LINEAR
  INNER_MAXIMUM  20
  INNER_HCLOSE   0.10000000E-06
  INNER_RCLOSE    1000.0000    
  LINEAR_ACCELERATION  CG
END LINEAR

BEGIN XMD
  INNER_MAXIMUM  20
  INNER_HCLOSE   0.10000000E-06
  LINEAR_ACCELERATION  CG
  PRECONDITIONER_LEVELS  7
  PRECONDITIONER_DROP_TOLERANCE   0.10000000E-02
  NUMBER_ORTHOGONALIZATIONS  2
END XMD
