# STO8 input file, prepared by mf5to15 on 7/9/2015 at 12:54:15.

BEGIN Options
  DEV_OLDSTORAGEFORMULATION
END Options

BEGIN GRIDDATA
  ICONVERT LAYERED
    CONSTANT  1
  SS LAYERED
    CONSTANT   0.10000000E-05
  SY LAYERED
    CONSTANT   0.20000000    
END GRIDDATA

BEGIN Period 1
    STEADY-STATE
END Period

BEGIN Period 2
    TRANSIENT
END Period

BEGIN Period 3
    STEADY-STATE
END Period
