# Basic package file for MODFLOW, generated by Flopy.
 FREE
INTERNAL               1  (200I10)  -1 #ibound Layer 1                
        -1         1         1         1         1         1         1         1         1         1         1         1         1         1         1         1         1         1         1         1         1         1         1         1         1         1         1         1         1         1         1         1         1         1         1         1         1         1         1         1         1         1         1         1         1         1         1         1         1         1         1         1         1         1         1         1         1         1         1         1         1         1         1         1         1         1         1         1         1         1         1         1         1         1         1         1         1         1         1         1         1         1         1         1         1         1         1         1         1         1         1         1         1         1         1         1         1         1         1         1         1         1         1         1         1         1         1         1         1         1         1         1         1         1         1         1         1         1         1         1         1         1         1         1         1         1         1         1         1         1         1         1         1         1         1         1         1         1         1         1         1         1         1         1         1         1         1         1         1         1         1         1         1         1         1         1         1         1         1         1         1         1         1         1         1         1         1         1         1         1         1         1         1         1         1         1         1         1         1         1         1         1         1         1         1         1         1         1         1         1         1         1         1         1         1         1         1         1         1        -1
        -999.99
INTERNAL               1 (200G15.6)  -1 #strt Layer 1                  
   2.300000E+01   2.300000E+01   2.300000E+01   2.300000E+01   2.300000E+01   2.300000E+01   2.300000E+01   2.300000E+01   2.300000E+01   2.300000E+01   2.300000E+01   2.300000E+01   2.300000E+01   2.300000E+01   2.300000E+01   2.300000E+01   2.300000E+01   2.300000E+01   2.300000E+01   2.300000E+01   2.300000E+01   2.300000E+01   2.300000E+01   2.300000E+01   2.300000E+01   2.300000E+01   2.300000E+01   2.300000E+01   2.300000E+01   2.300000E+01   2.300000E+01   2.300000E+01   2.300000E+01   2.300000E+01   2.300000E+01   2.300000E+01   2.300000E+01   2.300000E+01   2.300000E+01   2.300000E+01   2.300000E+01   2.300000E+01   2.300000E+01   2.300000E+01   2.300000E+01   2.300000E+01   2.300000E+01   2.300000E+01   2.300000E+01   2.300000E+01   2.300000E+01   2.300000E+01   2.300000E+01   2.300000E+01   2.300000E+01   2.300000E+01   2.300000E+01   2.300000E+01   2.300000E+01   2.300000E+01   2.300000E+01   2.300000E+01   2.300000E+01   2.300000E+01   2.300000E+01   2.300000E+01   2.300000E+01   2.300000E+01   2.300000E+01   2.300000E+01   2.300000E+01   2.300000E+01   2.300000E+01   2.300000E+01   2.300000E+01   2.300000E+01   2.300000E+01   2.300000E+01   2.300000E+01   2.300000E+01   2.300000E+01   2.300000E+01   2.300000E+01   2.300000E+01   2.300000E+01   2.300000E+01   2.300000E+01   2.300000E+01   2.300000E+01   2.300000E+01   2.300000E+01   2.300000E+01   2.300000E+01   2.300000E+01   2.300000E+01   2.300000E+01   2.300000E+01   2.300000E+01   2.300000E+01   2.300000E+01   2.300000E+01   2.300000E+01   2.300000E+01   2.300000E+01   2.300000E+01   2.300000E+01   2.300000E+01   2.300000E+01   2.300000E+01   2.300000E+01   2.300000E+01   2.300000E+01   2.300000E+01   2.300000E+01   2.300000E+01   2.300000E+01   2.300000E+01   2.300000E+01   2.300000E+01   2.300000E+01   2.300000E+01   2.300000E+01   2.300000E+01   2.300000E+01   2.300000E+01   2.300000E+01   2.300000E+01   2.300000E+01   2.300000E+01   2.300000E+01   2.300000E+01   2.300000E+01   2.300000E+01   2.300000E+01   2.300000E+01   2.300000E+01   2.300000E+01   2.300000E+01   2.300000E+01   2.300000E+01   2.300000E+01   2.300000E+01   2.300000E+01   2.300000E+01   2.300000E+01   2.300000E+01   2.300000E+01   2.300000E+01   2.300000E+01   2.300000E+01   2.300000E+01   2.300000E+01   2.300000E+01   2.300000E+01   2.300000E+01   2.300000E+01   2.300000E+01   2.300000E+01   2.300000E+01   2.300000E+01   2.300000E+01   2.300000E+01   2.300000E+01   2.300000E+01   2.300000E+01   2.300000E+01   2.300000E+01   2.300000E+01   2.300000E+01   2.300000E+01   2.300000E+01   2.300000E+01   2.300000E+01   2.300000E+01   2.300000E+01   2.300000E+01   2.300000E+01   2.300000E+01   2.300000E+01   2.300000E+01   2.300000E+01   2.300000E+01   2.300000E+01   2.300000E+01   2.300000E+01   2.300000E+01   2.300000E+01   2.300000E+01   2.300000E+01   2.300000E+01   2.300000E+01   2.300000E+01   2.300000E+01   2.300000E+01   2.300000E+01   2.300000E+01   2.300000E+01   2.300000E+01   2.300000E+01   5.000000E+00
