# SMS for MODFLOW-USG, generated by Flopy.
0.001 0.001 500 50 2 1 1
0.85 0.0001 0.0 0.1 50 1.1 0.7 0.0
2 0 5 7 0 0.0 1 1e-05
