BEGIN OPTIONS

END OPTIONS

BEGIN DIMENSIONS
  NLAY 3
  NROW 15
  NCOL 10
END DIMENSIONS

BEGIN GRIDDATA
  delr
    CONSTANT   5.000000E+02  DELR
  delc
    CONSTANT   5.000000E+02  DELC
  top
    CONSTANT   50.0  TOP of system          
  botm LAYERED
   CONSTANT    5.0   Layer BOTM layer   1
   CONSTANT  -10.0   Layer BOTM layer   2
   CONSTANT  -100.0  Layer BOTM layer   3
END GRIDDATA




