BEGIN OPTIONS
  DIGITS 10
  PRINT_INPUT
END OPTIONS

# Blocks defining single observations

BEGIN CONTINUOUS FILEOUT head_obs.csv
# obsname   type   lay row  col
  h1_13_8   HEAD    3   13   8
END CONTINUOUS
BEGIN CONTINUOUS FILEOUT intercell_flow_obs1.csv
  ICF1_1.0  FLOW-JA-FACE  1 5 6  1 6 6  
END CONTINUOUS
BEGIN CONTINUOUS FILEOUT head_hydrographs.csv
  open/close AdvGW_tidal.head.cont.opncls
END CONTINUOUS









