BEGIN OPTIONS
  SAVE_FLOWS
END OPTIONS
#
BEGIN GRIDDATA
  ICELLTYPE LAYERED
    CONSTANT 1
    CONSTANT 0
    CONSTANT 0
  k LAYERED
    CONSTANT 5.0
    CONSTANT 0.1
    CONSTANT 4.0
  K33 LAYERED
    CONSTANT 0.5
    CONSTANT 5.0E-3
    CONSTANT 0.1
END GRIDDATA
