BEGIN OPTIONS
  HEAD FILEOUT AdvGW_tidal.hds
  BUDGET FILEOUT AdvGW_tidal.cbc
  HEAD PRINT_FORMAT COLUMNS 10 WIDTH 15 DIGITS 6 GENERAL
END OPTIONS

BEGIN PERIOD 1
  PRINT HEAD FIRST
  PRINT HEAD LAST
  PRINT BUDGET LAST
  SAVE HEAD ALL
  SAVE BUDGET ALL
END PERIOD
