BEGIN OPTIONS
  DIGITS 10
  PRINT_INPUT
END OPTIONS

BEGIN CONTINUOUS FILEOUT riv_obs.csv
  open/close AdvGW_tidal.riv.cont.opncls
END CONTINUOUS

BEGIN CONTINUOUS FILEOUT riv_flowsA.csv
# obsname        type  lay  row  col (or boundname)
  riv1-3-1       RIV     1    3    1      
  riv1-4-2       RIV     1    4    2      
  riv1-5-3       RIV     1    5    3      
END CONTINUOUS

BEGIN CONTINUOUS FILEOUT riv_flowsB.csv
# obsname        type  lay  row  col (or boundname)
  riv2-10-1      RIV     1   10    1      
  riv2-9-2       RIV     1    9    2      
  riv2-8-3       RIV     1    8    3
END CONTINUOUS
