BEGIN OPTIONS
  TIME_UNITS SECONDS
END OPTIONS

BEGIN DIMENSIONS
  NPER 2
END DIMENSIONS

BEGIN PERIODDATA
 1.577880E+09        50    1.10           STRESS PERIOD 1
 1.577880E+09        50    1.10           STRESS PERIOD 2
END PERIODDATA
