begin options
end options
#
BEGIN GRIDDATA
  icelltype LAYERED
    constant 1
  k LAYERED
    INTERNAL  FACTOR   2.000E-04 IPRN    0            HY layer  1
     10.0 10.0  0.0  0.0  0.0  0.0  0.0  0.0  0.0  0.0
      2.0 10.0 10.0  0.0  0.0  2.0  2.0  2.0  0.0  0.0
      0.0  2.0 10.0 10.0  2.0  2.0  2.0  2.0  0.0  0.0
      2.0  2.0  2.0 10.0 10.0 10.0  2.0  2.0  2.0  0.0
      2.0  2.0  2.0 10.0 10.0 10.0 10.0 10.0 10.0 10.0
      2.0  2.0  2.0 10.0 10.0 10.0 10.0 10.0  2.0  2.0
      2.0  2.0  2.0 10.0 10.0 10.0 10.0 10.0  2.0  0.0
      0.0  2.0  2.0 10.0 10.0 10.0 10.0  2.0  2.0  0.0
      0.0  2.0  2.0 10.0 10.0 10.0 10.0  2.0  2.0  0.0
      0.0  2.0  2.0 10.0 10.0 10.0 10.0  2.0  2.0  2.0
      0.0  2.0  2.0 10.0 10.0 10.0 10.0  2.0  2.0  0.0
      2.0  2.0 10.0 10.0 10.0 10.0 10.0  2.0  2.0  0.0
     10.0 10.0 10.0 10.0 10.0 10.0 10.0 10.0 10.0  0.0
      0.0  2.0  2.0  2.0  2.0  2.0  2.0  2.0 10.0  0.0
      0.0  0.0  2.0  2.0  2.0  2.0  0.0  0.0  0.0  0.0
  K33 LAYERED
    constant 1.
END GRIDDATA

