#option block.  Note -- no comments allowed on auxiliary line
begin options
  PRINT_INPUT
  PRINT_FLOWS
end options

begin dimensions
  MAXBOUND 2
end dimensions

begin period 1
         1        13         1     988.0     0.038
         1        14         9    1045.0     0.038
end period
