begin options
  PRINT_INPUT 
  PRINT_HEAD
  PRINT_FLOWS  
  BOUNDNAMES
  NO_WELL_STORAGE
end options

begin dimensions
  NMAWWELLS 1
end dimensions

BEGIN PACKAGEDATA
# no radius bottom strt     condeqn ngwnodes  name          
   1   0.15 40.54  50.0       THEIM        1  well       
END PACKAGEDATA

BEGIN CONNECTIONDATA
# wellno conn  l  r  c  stop   sbot      K  rskin
       1    1  1  5  5  200.  40.54 111.53      0
END CONNECTIONDATA

begin period 1
  1 rate -1.e-01
end period
