BEGIN OPTIONS
  HEAD FILEOUT FW_Transient.hds
  BUDGET FILEOUT FW_Transient.cbc
END OPTIONS

BEGIN PERIOD 1
  PRINT BUDGET FREQUENCY 1
  SAVE BUDGET FREQUENCY 1
  SAVE HEAD FREQUENCY 1
  PRINT HEAD LAST
END PERIOD
