BEGIN Options
  NEWTON
END Options

BEGIN PACKAGES
  DIS6          flow15.dis
  IC6           flow15.ic
  NPF6          flow15.npf
  CHD6          flow15_constant.chd
  MAW6          flow15.maw_1.maw  MAW-FIRST
  MAW6          flow15.maw_2.maw  MAW-SECOND
  OC6           flow15.oc
  MVR6          flow15.mvr
END PACKAGES

