BEGIN OPTIONS
  PRINT_INPUT
  PRINT_FLOWS
END OPTIONS

BEGIN DIMENSIONS
  MAXMVR 10
  MAXPACKAGES 2
END DIMENSIONS

BEGIN PACKAGES
  MAW-FIRST
  MAW-SECOND
END PACKAGES

BEGIN PERIOD 1
  MAW-FIRST 1 MAW-SECOND 1 UPTO 0.99
  MAW-FIRST 2 MAW-SECOND 1 UPTO 0.99
END PERIOD 1
