BEGIN OPTIONS
  SAVE_FLOWS
END OPTIONS

BEGIN GRIDDATA
  ICELLTYPE
    CONSTANT  1
  K
    CONSTANT 1.0
  K33
    CONSTANT 1.0
END GRIDDATA
