# Name file for mf2005, generated by Flopy.
begin options
  NEWTON UNDER_RELAXATION
end options

BEGIN PACKAGES
  DIS6  flowdivert.dis
  IC6   flowdivert.ic
  NPF6  flowdivert.npf
  CHD6  flowdivert.chd
  OC6   flowdivert.oc
END PACKAGES

