BEGIN OPTIONS
  SAVE_FLOWS
  PRINT_FLOWS
END OPTIONS

BEGIN DIMENSIONS
  MAXBOUND 110
END DIMENSIONS

BEGIN PERIOD 1
  1 1 1 10.0
  1 1 51 5.0
  1 2 1 10.0
  1 2 51 5.0
  1 3 1 10.0
  1 3 51 5.0
  1 4 1 10.0
  1 4 51 5.0
  1 5 1 10.0
  1 5 51 5.0
  1 6 1 10.0
  1 6 51 5.0
  1 7 1 10.0
  1 7 51 5.0
  1 8 1 10.0
  1 8 51 5.0
  1 9 1 10.0
  1 9 51 5.0
  1 10 1 10.0
  1 10 51 5.0
  1 11 1 10.0
  1 11 51 5.0
  1 12 1 10.0
  1 12 51 5.0
  1 13 1 10.0
  1 13 51 5.0
  1 14 1 10.0
  1 14 51 5.0
  1 15 1 10.0
  1 15 51 5.0
  1 16 1 10.0
  1 16 51 5.0
  1 17 1 10.0
  1 17 51 5.0
  1 18 1 10.0
  1 18 51 5.0
  1 19 1 10.0
  1 19 51 5.0
  1 20 1 10.0
  1 20 51 5.0
  1 21 1 10.0
  1 21 51 5.0
  1 22 1 10.0
  1 22 51 5.0
  1 23 1 10.0
  1 23 51 5.0
  1 24 1 10.0
  1 24 51 5.0
  1 25 1 10.0
  1 25 51 5.0
  1 26 1 10.0
  1 26 51 5.0
  1 27 1 10.0
  1 27 51 5.0
  1 28 1 10.0
  1 28 51 5.0
  1 29 1 10.0
  1 29 51 5.0
  1 30 1 10.0
  1 30 51 5.0
  1 31 1 10.0
  1 31 51 5.0
  1 32 1 10.0
  1 32 51 5.0
  1 33 1 10.0
  1 33 51 5.0
  1 34 1 10.0
  1 34 51 5.0
  1 35 1 10.0
  1 35 51 5.0
  1 36 1 10.0
  1 36 51 5.0
  1 37 1 10.0
  1 37 51 5.0
  1 38 1 10.0
  1 38 51 5.0
  1 39 1 10.0
  1 39 51 5.0
  1 40 1 10.0
  1 40 51 5.0
  1 41 1 10.0
  1 41 51 5.0
  1 42 1 10.0
  1 42 51 5.0
  1 43 1 10.0
  1 43 51 5.0
  1 44 1 10.0
  1 44 51 5.0
  1 45 1 10.0
  1 45 51 5.0
  1 46 1 10.0
  1 46 51 5.0
  1 47 1 10.0
  1 47 51 5.0
  1 48 1 10.0
  1 48 51 5.0
  1 49 1 10.0
  1 49 51 5.0
  1 50 1 10.0
  1 50 51 5.0
  1 51 1 10.0
  1 51 51 5.0
END PERIOD