BEGIN OPTIONS
  HEAD FILEOUT flow.hds
  BUDGET FILEOUT flow.cbc
END OPTIONS

BEGIN PERIOD 1
  PRINT BUDGET LAST
  SAVE BUDGET LAST
  PRINT HEAD LAST
  SAVE HEAD LAST
END PERIOD
