# MODFLOW2005 Discretization File
 1  1 21  003 4  2
 0 0 0
  CONSTANT   500.00 (10E12.4)                    0     DELTA-X or C
  CONSTANT   500.00 (10E12.4)                    0     DELTA-Y or R
   CONSTANT     5.00 (10e12.4)                   -1     TOP of Model
   CONSTANT    -4.00 (10e12.4)                   -1     BOTTOM of Layer   3
100. 100  1.00      TR  STRESS PERIOD 001
100. 100  1.00      TR  STRESS PERIOD 002
200. 200  1.00      TR  STRESS PERIOD 003
