begin options
  #PRINT_INPUT
  PRINT_FLOWS
  SAVE_FLOWS
end options

begin dimensions
  MAXBOUND 3
end dimensions

begin period 1
 8 1 3    600.
 9 1 3    600.
10 1 3    600.
end period
