# OC8 input file, prepared by mf5to15 on 6/26/2015 at 9:34:42.

BEGIN Options
  HEAD FILEOUT  test034_nwtp2.hds
  HEAD PRINT_FORMAT  COLUMNS 10  WIDTH 11  DIGITS 4  GENERAL
END Options

BEGIN PERIOD 1
  PRINT BUDGET STEPS 1 10
  SAVE HEAD STEPS 1 10
END PERIOD

BEGIN PERIOD 2
  PRINT BUDGET LAST
  SAVE HEAD LAST
END PERIOD

BEGIN PERIOD 3
  PRINT BUDGET LAST
  SAVE HEAD STEPS 1 2 17
END PERIOD

BEGIN PERIOD 4
  PRINT BUDGET LAST
  SAVE HEAD LAST
END PERIOD
