# IC8 input file, prepared by mf5to15 on 6/26/2015 at 9:34:42.

BEGIN Options
END Options

BEGIN GRIDDATA
  STRT LAYERED
    CONSTANT    25.0000000        Initial head for layer 1
    CONSTANT    25.0000000        Initial head for layer 2
    CONSTANT    25.0000000        Initial head for layer 3
    CONSTANT    25.0000000        Initial head for layer 4
    CONSTANT    25.0000000        Initial head for layer 5
    CONSTANT    25.0000000        Initial head for layer 6
    CONSTANT    25.0000000        Initial head for layer 7
    CONSTANT    25.0000000        Initial head for layer 8
    CONSTANT    25.0000000        Initial head for layer 9
    CONSTANT    25.0000000        Initial head for layer 10
    CONSTANT    25.0000000        Initial head for layer 11
    CONSTANT    25.0000000        Initial head for layer 12
    CONSTANT    25.0000000        Initial head for layer 13
    CONSTANT    25.0000000        Initial head for layer 14
END GRIDDATA
