BEGIN Options
  NEWTON UNDER_RELAXATION
END Options

BEGIN PACKAGES
  DIS6          test034_nwtp2.dis
  IC6           test034_nwtp2.ic
  NPF6          test034_nwtp2.npf
  STO6          test034_nwtp2.sto
  CHD6          test034_nwtp2_constant.chd
  OC6           test034_nwtp2.oc
  RCH6          test034_nwtp2.rch
  OBS6          test034_nwtp2.obs
END PACKAGES

