# SMS8 input file, prepared by mf5to15 on 6/26/2015 at 9:34:42.

BEGIN Options
  PRINT_OPTION SUMMARY
  NO_PTC
END Options

begin nonlinear
	outer_hclose 1.e-9
	outer_maximum 500 
	under_relaxation dbd
	under_relaxation_theta 0.97
	under_relaxation_kappa 0.100000E-03
	under_relaxation_gamma 0.
	under_relaxation_momentum 0.10
	BACKTRACKING_NUMBER 20
	BACKTRACKING_TOLERANCE 1.5
	BACKTRACKING_REDUCTION_FACTOR 0.7
	BACKTRACKING_RESIDUAL_LIMIT 1.0
end nonlinear

begin linear
	inner_hclose 1.0e-9
	inner_rclose .0  RELATIVE_RCLOSE
	inner_maximum 50
	linear_acceleration bicgstab
	scaling_method none
	REORDERING_METHOD none
	relaxation_factor 0.97
	NUMBER_ORTHOGONALIZATIONS 5
	PRECONDITIONER_LEVELS 3
	PRECONDITIONER_DROP_TOLERANCE 1.0e-4
end linear
