# STO8 input file, prepared by mf5to15 on 6/26/2015 at 9:34:42.

BEGIN Options
END Options

BEGIN GRIDDATA
  ICONVERT LAYERED
    CONSTANT  1
    CONSTANT  1
    CONSTANT  1
    CONSTANT  1
    CONSTANT  1
    CONSTANT  1
    CONSTANT  1
    CONSTANT  1
    CONSTANT  1
    CONSTANT  0
    CONSTANT  0
    CONSTANT  0
    CONSTANT  0
    CONSTANT  0
  SS LAYERED
    CONSTANT   0.20000000E-03
    CONSTANT   0.20000000E-03
    CONSTANT   0.20000000E-03
    CONSTANT   0.20000000E-03
    CONSTANT   0.20000000E-03
    CONSTANT   0.20000000E-03
    CONSTANT   0.20000000E-03
    CONSTANT   0.20000000E-03
    CONSTANT   0.20000000E-03
    CONSTANT   0.20000000E-03
    CONSTANT   0.20000000E-03
    CONSTANT   0.20000000E-03
    CONSTANT   0.20000000E-03
    CONSTANT   0.20000000E-03
  SY LAYERED
    CONSTANT   0.20000000    
    CONSTANT   0.20000000    
    CONSTANT   0.20000000    
    CONSTANT   0.20000000    
    CONSTANT   0.20000000    
    CONSTANT   0.20000000    
    CONSTANT   0.20000000    
    CONSTANT   0.20000000    
    CONSTANT   0.20000000    
    CONSTANT    0.0000000    
    CONSTANT    0.0000000    
    CONSTANT    0.0000000    
    CONSTANT    0.0000000    
    CONSTANT    0.0000000    
END GRIDDATA

begin period 4
  steady-state
end period 4
