# CHD8 input file, prepared by mf5to15 on 6/26/2015 at 12:54:27.

BEGIN Options
  PRINT_FLOWS
END Options

BEGIN Dimensions
  MAXBOUND  395
END Dimensions

BEGIN Period 1
  10  1  40    25.000000        25.000000    
  10  2  40    25.000000        25.000000    
  10  3  40    25.000000        25.000000    
  10  4  40    25.000000        25.000000    
  10  5  40    25.000000        25.000000    
  10  6  40    25.000000        25.000000    
  10  7  40    25.000000        25.000000    
  10  8  40    25.000000        25.000000    
  10  9  40    25.000000        25.000000    
  10  10  40    25.000000        25.000000    
  10  11  40    25.000000        25.000000    
  10  12  40    25.000000        25.000000    
  10  13  40    25.000000        25.000000    
  10  14  40    25.000000        25.000000    
  10  15  40    25.000000        25.000000    
  10  16  40    25.000000        25.000000    
  10  17  40    25.000000        25.000000    
  10  18  40    25.000000        25.000000    
  10  19  40    25.000000        25.000000    
  10  20  40    25.000000        25.000000    
  10  21  40    25.000000        25.000000    
  10  22  40    25.000000        25.000000    
  10  23  40    25.000000        25.000000    
  10  24  40    25.000000        25.000000    
  10  25  40    25.000000        25.000000    
  10  26  40    25.000000        25.000000    
  10  27  40    25.000000        25.000000    
  10  28  40    25.000000        25.000000    
  10  29  40    25.000000        25.000000    
  10  30  40    25.000000        25.000000    
  10  31  40    25.000000        25.000000    
  10  32  40    25.000000        25.000000    
  10  33  40    25.000000        25.000000    
  10  34  40    25.000000        25.000000    
  10  35  40    25.000000        25.000000    
  10  36  40    25.000000        25.000000    
  10  37  40    25.000000        25.000000    
  10  38  40    25.000000        25.000000    
  10  39  40    25.000000        25.000000    
  10  40  1    25.000000        25.000000    
  10  40  2    25.000000        25.000000    
  10  40  3    25.000000        25.000000    
  10  40  4    25.000000        25.000000    
  10  40  5    25.000000        25.000000    
  10  40  6    25.000000        25.000000    
  10  40  7    25.000000        25.000000    
  10  40  8    25.000000        25.000000    
  10  40  9    25.000000        25.000000    
  10  40  10    25.000000        25.000000    
  10  40  11    25.000000        25.000000    
  10  40  12    25.000000        25.000000    
  10  40  13    25.000000        25.000000    
  10  40  14    25.000000        25.000000    
  10  40  15    25.000000        25.000000    
  10  40  16    25.000000        25.000000    
  10  40  17    25.000000        25.000000    
  10  40  18    25.000000        25.000000    
  10  40  19    25.000000        25.000000    
  10  40  20    25.000000        25.000000    
  10  40  21    25.000000        25.000000    
  10  40  22    25.000000        25.000000    
  10  40  23    25.000000        25.000000    
  10  40  24    25.000000        25.000000    
  10  40  25    25.000000        25.000000    
  10  40  26    25.000000        25.000000    
  10  40  27    25.000000        25.000000    
  10  40  28    25.000000        25.000000    
  10  40  29    25.000000        25.000000    
  10  40  30    25.000000        25.000000    
  10  40  31    25.000000        25.000000    
  10  40  32    25.000000        25.000000    
  10  40  33    25.000000        25.000000    
  10  40  34    25.000000        25.000000    
  10  40  35    25.000000        25.000000    
  10  40  36    25.000000        25.000000    
  10  40  37    25.000000        25.000000    
  10  40  38    25.000000        25.000000    
  10  40  39    25.000000        25.000000    
  10  40  40    25.000000        25.000000    
  11  1  40    25.000000        25.000000    
  11  2  40    25.000000        25.000000    
  11  3  40    25.000000        25.000000    
  11  4  40    25.000000        25.000000    
  11  5  40    25.000000        25.000000    
  11  6  40    25.000000        25.000000    
  11  7  40    25.000000        25.000000    
  11  8  40    25.000000        25.000000    
  11  9  40    25.000000        25.000000    
  11  10  40    25.000000        25.000000    
  11  11  40    25.000000        25.000000    
  11  12  40    25.000000        25.000000    
  11  13  40    25.000000        25.000000    
  11  14  40    25.000000        25.000000    
  11  15  40    25.000000        25.000000    
  11  16  40    25.000000        25.000000    
  11  17  40    25.000000        25.000000    
  11  18  40    25.000000        25.000000    
  11  19  40    25.000000        25.000000    
  11  20  40    25.000000        25.000000    
  11  21  40    25.000000        25.000000    
  11  22  40    25.000000        25.000000    
  11  23  40    25.000000        25.000000    
  11  24  40    25.000000        25.000000    
  11  25  40    25.000000        25.000000    
  11  26  40    25.000000        25.000000    
  11  27  40    25.000000        25.000000    
  11  28  40    25.000000        25.000000    
  11  29  40    25.000000        25.000000    
  11  30  40    25.000000        25.000000    
  11  31  40    25.000000        25.000000    
  11  32  40    25.000000        25.000000    
  11  33  40    25.000000        25.000000    
  11  34  40    25.000000        25.000000    
  11  35  40    25.000000        25.000000    
  11  36  40    25.000000        25.000000    
  11  37  40    25.000000        25.000000    
  11  38  40    25.000000        25.000000    
  11  39  40    25.000000        25.000000    
  11  40  1    25.000000        25.000000    
  11  40  2    25.000000        25.000000    
  11  40  3    25.000000        25.000000    
  11  40  4    25.000000        25.000000    
  11  40  5    25.000000        25.000000    
  11  40  6    25.000000        25.000000    
  11  40  7    25.000000        25.000000    
  11  40  8    25.000000        25.000000    
  11  40  9    25.000000        25.000000    
  11  40  10    25.000000        25.000000    
  11  40  11    25.000000        25.000000    
  11  40  12    25.000000        25.000000    
  11  40  13    25.000000        25.000000    
  11  40  14    25.000000        25.000000    
  11  40  15    25.000000        25.000000    
  11  40  16    25.000000        25.000000    
  11  40  17    25.000000        25.000000    
  11  40  18    25.000000        25.000000    
  11  40  19    25.000000        25.000000    
  11  40  20    25.000000        25.000000    
  11  40  21    25.000000        25.000000    
  11  40  22    25.000000        25.000000    
  11  40  23    25.000000        25.000000    
  11  40  24    25.000000        25.000000    
  11  40  25    25.000000        25.000000    
  11  40  26    25.000000        25.000000    
  11  40  27    25.000000        25.000000    
  11  40  28    25.000000        25.000000    
  11  40  29    25.000000        25.000000    
  11  40  30    25.000000        25.000000    
  11  40  31    25.000000        25.000000    
  11  40  32    25.000000        25.000000    
  11  40  33    25.000000        25.000000    
  11  40  34    25.000000        25.000000    
  11  40  35    25.000000        25.000000    
  11  40  36    25.000000        25.000000    
  11  40  37    25.000000        25.000000    
  11  40  38    25.000000        25.000000    
  11  40  39    25.000000        25.000000    
  11  40  40    25.000000        25.000000    
  12  1  40    25.000000        25.000000    
  12  2  40    25.000000        25.000000    
  12  3  40    25.000000        25.000000    
  12  4  40    25.000000        25.000000    
  12  5  40    25.000000        25.000000    
  12  6  40    25.000000        25.000000    
  12  7  40    25.000000        25.000000    
  12  8  40    25.000000        25.000000    
  12  9  40    25.000000        25.000000    
  12  10  40    25.000000        25.000000    
  12  11  40    25.000000        25.000000    
  12  12  40    25.000000        25.000000    
  12  13  40    25.000000        25.000000    
  12  14  40    25.000000        25.000000    
  12  15  40    25.000000        25.000000    
  12  16  40    25.000000        25.000000    
  12  17  40    25.000000        25.000000    
  12  18  40    25.000000        25.000000    
  12  19  40    25.000000        25.000000    
  12  20  40    25.000000        25.000000    
  12  21  40    25.000000        25.000000    
  12  22  40    25.000000        25.000000    
  12  23  40    25.000000        25.000000    
  12  24  40    25.000000        25.000000    
  12  25  40    25.000000        25.000000    
  12  26  40    25.000000        25.000000    
  12  27  40    25.000000        25.000000    
  12  28  40    25.000000        25.000000    
  12  29  40    25.000000        25.000000    
  12  30  40    25.000000        25.000000    
  12  31  40    25.000000        25.000000    
  12  32  40    25.000000        25.000000    
  12  33  40    25.000000        25.000000    
  12  34  40    25.000000        25.000000    
  12  35  40    25.000000        25.000000    
  12  36  40    25.000000        25.000000    
  12  37  40    25.000000        25.000000    
  12  38  40    25.000000        25.000000    
  12  39  40    25.000000        25.000000    
  12  40  1    25.000000        25.000000    
  12  40  2    25.000000        25.000000    
  12  40  3    25.000000        25.000000    
  12  40  4    25.000000        25.000000    
  12  40  5    25.000000        25.000000    
  12  40  6    25.000000        25.000000    
  12  40  7    25.000000        25.000000    
  12  40  8    25.000000        25.000000    
  12  40  9    25.000000        25.000000    
  12  40  10    25.000000        25.000000    
  12  40  11    25.000000        25.000000    
  12  40  12    25.000000        25.000000    
  12  40  13    25.000000        25.000000    
  12  40  14    25.000000        25.000000    
  12  40  15    25.000000        25.000000    
  12  40  16    25.000000        25.000000    
  12  40  17    25.000000        25.000000    
  12  40  18    25.000000        25.000000    
  12  40  19    25.000000        25.000000    
  12  40  20    25.000000        25.000000    
  12  40  21    25.000000        25.000000    
  12  40  22    25.000000        25.000000    
  12  40  23    25.000000        25.000000    
  12  40  24    25.000000        25.000000    
  12  40  25    25.000000        25.000000    
  12  40  26    25.000000        25.000000    
  12  40  27    25.000000        25.000000    
  12  40  28    25.000000        25.000000    
  12  40  29    25.000000        25.000000    
  12  40  30    25.000000        25.000000    
  12  40  31    25.000000        25.000000    
  12  40  32    25.000000        25.000000    
  12  40  33    25.000000        25.000000    
  12  40  34    25.000000        25.000000    
  12  40  35    25.000000        25.000000    
  12  40  36    25.000000        25.000000    
  12  40  37    25.000000        25.000000    
  12  40  38    25.000000        25.000000    
  12  40  39    25.000000        25.000000    
  12  40  40    25.000000        25.000000    
  13  1  40    25.000000        25.000000    
  13  2  40    25.000000        25.000000    
  13  3  40    25.000000        25.000000    
  13  4  40    25.000000        25.000000    
  13  5  40    25.000000        25.000000    
  13  6  40    25.000000        25.000000    
  13  7  40    25.000000        25.000000    
  13  8  40    25.000000        25.000000    
  13  9  40    25.000000        25.000000    
  13  10  40    25.000000        25.000000    
  13  11  40    25.000000        25.000000    
  13  12  40    25.000000        25.000000    
  13  13  40    25.000000        25.000000    
  13  14  40    25.000000        25.000000    
  13  15  40    25.000000        25.000000    
  13  16  40    25.000000        25.000000    
  13  17  40    25.000000        25.000000    
  13  18  40    25.000000        25.000000    
  13  19  40    25.000000        25.000000    
  13  20  40    25.000000        25.000000    
  13  21  40    25.000000        25.000000    
  13  22  40    25.000000        25.000000    
  13  23  40    25.000000        25.000000    
  13  24  40    25.000000        25.000000    
  13  25  40    25.000000        25.000000    
  13  26  40    25.000000        25.000000    
  13  27  40    25.000000        25.000000    
  13  28  40    25.000000        25.000000    
  13  29  40    25.000000        25.000000    
  13  30  40    25.000000        25.000000    
  13  31  40    25.000000        25.000000    
  13  32  40    25.000000        25.000000    
  13  33  40    25.000000        25.000000    
  13  34  40    25.000000        25.000000    
  13  35  40    25.000000        25.000000    
  13  36  40    25.000000        25.000000    
  13  37  40    25.000000        25.000000    
  13  38  40    25.000000        25.000000    
  13  39  40    25.000000        25.000000    
  13  40  1    25.000000        25.000000    
  13  40  2    25.000000        25.000000    
  13  40  3    25.000000        25.000000    
  13  40  4    25.000000        25.000000    
  13  40  5    25.000000        25.000000    
  13  40  6    25.000000        25.000000    
  13  40  7    25.000000        25.000000    
  13  40  8    25.000000        25.000000    
  13  40  9    25.000000        25.000000    
  13  40  10    25.000000        25.000000    
  13  40  11    25.000000        25.000000    
  13  40  12    25.000000        25.000000    
  13  40  13    25.000000        25.000000    
  13  40  14    25.000000        25.000000    
  13  40  15    25.000000        25.000000    
  13  40  16    25.000000        25.000000    
  13  40  17    25.000000        25.000000    
  13  40  18    25.000000        25.000000    
  13  40  19    25.000000        25.000000    
  13  40  20    25.000000        25.000000    
  13  40  21    25.000000        25.000000    
  13  40  22    25.000000        25.000000    
  13  40  23    25.000000        25.000000    
  13  40  24    25.000000        25.000000    
  13  40  25    25.000000        25.000000    
  13  40  26    25.000000        25.000000    
  13  40  27    25.000000        25.000000    
  13  40  28    25.000000        25.000000    
  13  40  29    25.000000        25.000000    
  13  40  30    25.000000        25.000000    
  13  40  31    25.000000        25.000000    
  13  40  32    25.000000        25.000000    
  13  40  33    25.000000        25.000000    
  13  40  34    25.000000        25.000000    
  13  40  35    25.000000        25.000000    
  13  40  36    25.000000        25.000000    
  13  40  37    25.000000        25.000000    
  13  40  38    25.000000        25.000000    
  13  40  39    25.000000        25.000000    
  13  40  40    25.000000        25.000000    
  14  1  40    25.000000        25.000000    
  14  2  40    25.000000        25.000000    
  14  3  40    25.000000        25.000000    
  14  4  40    25.000000        25.000000    
  14  5  40    25.000000        25.000000    
  14  6  40    25.000000        25.000000    
  14  7  40    25.000000        25.000000    
  14  8  40    25.000000        25.000000    
  14  9  40    25.000000        25.000000    
  14  10  40    25.000000        25.000000    
  14  11  40    25.000000        25.000000    
  14  12  40    25.000000        25.000000    
  14  13  40    25.000000        25.000000    
  14  14  40    25.000000        25.000000    
  14  15  40    25.000000        25.000000    
  14  16  40    25.000000        25.000000    
  14  17  40    25.000000        25.000000    
  14  18  40    25.000000        25.000000    
  14  19  40    25.000000        25.000000    
  14  20  40    25.000000        25.000000    
  14  21  40    25.000000        25.000000    
  14  22  40    25.000000        25.000000    
  14  23  40    25.000000        25.000000    
  14  24  40    25.000000        25.000000    
  14  25  40    25.000000        25.000000    
  14  26  40    25.000000        25.000000    
  14  27  40    25.000000        25.000000    
  14  28  40    25.000000        25.000000    
  14  29  40    25.000000        25.000000    
  14  30  40    25.000000        25.000000    
  14  31  40    25.000000        25.000000    
  14  32  40    25.000000        25.000000    
  14  33  40    25.000000        25.000000    
  14  34  40    25.000000        25.000000    
  14  35  40    25.000000        25.000000    
  14  36  40    25.000000        25.000000    
  14  37  40    25.000000        25.000000    
  14  38  40    25.000000        25.000000    
  14  39  40    25.000000        25.000000    
  14  40  1    25.000000        25.000000    
  14  40  2    25.000000        25.000000    
  14  40  3    25.000000        25.000000    
  14  40  4    25.000000        25.000000    
  14  40  5    25.000000        25.000000    
  14  40  6    25.000000        25.000000    
  14  40  7    25.000000        25.000000    
  14  40  8    25.000000        25.000000    
  14  40  9    25.000000        25.000000    
  14  40  10    25.000000        25.000000    
  14  40  11    25.000000        25.000000    
  14  40  12    25.000000        25.000000    
  14  40  13    25.000000        25.000000    
  14  40  14    25.000000        25.000000    
  14  40  15    25.000000        25.000000    
  14  40  16    25.000000        25.000000    
  14  40  17    25.000000        25.000000    
  14  40  18    25.000000        25.000000    
  14  40  19    25.000000        25.000000    
  14  40  20    25.000000        25.000000    
  14  40  21    25.000000        25.000000    
  14  40  22    25.000000        25.000000    
  14  40  23    25.000000        25.000000    
  14  40  24    25.000000        25.000000    
  14  40  25    25.000000        25.000000    
  14  40  26    25.000000        25.000000    
  14  40  27    25.000000        25.000000    
  14  40  28    25.000000        25.000000    
  14  40  29    25.000000        25.000000    
  14  40  30    25.000000        25.000000    
  14  40  31    25.000000        25.000000    
  14  40  32    25.000000        25.000000    
  14  40  33    25.000000        25.000000    
  14  40  34    25.000000        25.000000    
  14  40  35    25.000000        25.000000    
  14  40  36    25.000000        25.000000    
  14  40  37    25.000000        25.000000    
  14  40  38    25.000000        25.000000    
  14  40  39    25.000000        25.000000    
  14  40  40    25.000000        25.000000    
END Period
