# RCH8 input file, prepared by mf5to15 on 6/26/2015 at 9:34:42.

BEGIN Options
  READASARRAYS
  SAVE_FLOWS
END Options

BEGIN PERIOD 1
  RECHARGE
    INTERNAL  FACTOR  1.0  IPRN  -12
 0.5000000E-01  0.5000000E-01   0.000000       0.000000       0.000000       0.000000
  0.000000       0.000000       0.000000       0.000000       0.000000       0.000000
  0.000000       0.000000       0.000000       0.000000       0.000000       0.000000
  0.000000       0.000000       0.000000       0.000000       0.000000       0.000000
  0.000000       0.000000       0.000000       0.000000       0.000000       0.000000
  0.000000       0.000000       0.000000       0.000000       0.000000       0.000000
  0.000000       0.000000       0.000000       0.000000
 0.5000000E-01  0.5000000E-01   0.000000       0.000000       0.000000       0.000000
  0.000000       0.000000       0.000000       0.000000       0.000000       0.000000
  0.000000       0.000000       0.000000       0.000000       0.000000       0.000000
  0.000000       0.000000       0.000000       0.000000       0.000000       0.000000
  0.000000       0.000000       0.000000       0.000000       0.000000       0.000000
  0.000000       0.000000       0.000000       0.000000       0.000000       0.000000
  0.000000       0.000000       0.000000       0.000000
  0.000000       0.000000       0.000000       0.000000       0.000000       0.000000
  0.000000       0.000000       0.000000       0.000000       0.000000       0.000000
  0.000000       0.000000       0.000000       0.000000       0.000000       0.000000
  0.000000       0.000000       0.000000       0.000000       0.000000       0.000000
  0.000000       0.000000       0.000000       0.000000       0.000000       0.000000
  0.000000       0.000000       0.000000       0.000000       0.000000       0.000000
  0.000000       0.000000       0.000000       0.000000
  0.000000       0.000000       0.000000       0.000000       0.000000       0.000000
  0.000000       0.000000       0.000000       0.000000       0.000000       0.000000
  0.000000       0.000000       0.000000       0.000000       0.000000       0.000000
  0.000000       0.000000       0.000000       0.000000       0.000000       0.000000
  0.000000       0.000000       0.000000       0.000000       0.000000       0.000000
  0.000000       0.000000       0.000000       0.000000       0.000000       0.000000
  0.000000       0.000000       0.000000       0.000000
  0.000000       0.000000       0.000000       0.000000       0.000000       0.000000
  0.000000       0.000000       0.000000       0.000000       0.000000       0.000000
  0.000000       0.000000       0.000000       0.000000       0.000000       0.000000
  0.000000       0.000000       0.000000       0.000000       0.000000       0.000000
  0.000000       0.000000       0.000000       0.000000       0.000000       0.000000
  0.000000       0.000000       0.000000       0.000000       0.000000       0.000000
  0.000000       0.000000       0.000000       0.000000
  0.000000       0.000000       0.000000       0.000000       0.000000       0.000000
  0.000000       0.000000       0.000000       0.000000       0.000000       0.000000
  0.000000       0.000000       0.000000       0.000000       0.000000       0.000000
  0.000000       0.000000       0.000000       0.000000       0.000000       0.000000
  0.000000       0.000000       0.000000       0.000000       0.000000       0.000000
  0.000000       0.000000       0.000000       0.000000       0.000000       0.000000
  0.000000       0.000000       0.000000       0.000000
  0.000000       0.000000       0.000000       0.000000       0.000000       0.000000
  0.000000       0.000000       0.000000       0.000000       0.000000       0.000000
  0.000000       0.000000       0.000000       0.000000       0.000000       0.000000
  0.000000       0.000000       0.000000       0.000000       0.000000       0.000000
  0.000000       0.000000       0.000000       0.000000       0.000000       0.000000
  0.000000       0.000000       0.000000       0.000000       0.000000       0.000000
  0.000000       0.000000       0.000000       0.000000
  0.000000       0.000000       0.000000       0.000000       0.000000       0.000000
  0.000000       0.000000       0.000000       0.000000       0.000000       0.000000
  0.000000       0.000000       0.000000       0.000000       0.000000       0.000000
  0.000000       0.000000       0.000000       0.000000       0.000000       0.000000
  0.000000       0.000000       0.000000       0.000000       0.000000       0.000000
  0.000000       0.000000       0.000000       0.000000       0.000000       0.000000
  0.000000       0.000000       0.000000       0.000000
  0.000000       0.000000       0.000000       0.000000       0.000000       0.000000
  0.000000       0.000000       0.000000       0.000000       0.000000       0.000000
  0.000000       0.000000       0.000000       0.000000       0.000000       0.000000
  0.000000       0.000000       0.000000       0.000000       0.000000       0.000000
  0.000000       0.000000       0.000000       0.000000       0.000000       0.000000
  0.000000       0.000000       0.000000       0.000000       0.000000       0.000000
  0.000000       0.000000       0.000000       0.000000
  0.000000       0.000000       0.000000       0.000000       0.000000       0.000000
  0.000000       0.000000       0.000000       0.000000       0.000000       0.000000
  0.000000       0.000000       0.000000       0.000000       0.000000       0.000000
  0.000000       0.000000       0.000000       0.000000       0.000000       0.000000
  0.000000       0.000000       0.000000       0.000000       0.000000       0.000000
  0.000000       0.000000       0.000000       0.000000       0.000000       0.000000
  0.000000       0.000000       0.000000       0.000000
  0.000000       0.000000       0.000000       0.000000       0.000000       0.000000
  0.000000       0.000000       0.000000       0.000000       0.000000       0.000000
  0.000000       0.000000       0.000000       0.000000       0.000000       0.000000
  0.000000       0.000000       0.000000       0.000000       0.000000       0.000000
  0.000000       0.000000       0.000000       0.000000       0.000000       0.000000
  0.000000       0.000000       0.000000       0.000000       0.000000       0.000000
  0.000000       0.000000       0.000000       0.000000
  0.000000       0.000000       0.000000       0.000000       0.000000       0.000000
  0.000000       0.000000       0.000000       0.000000       0.000000       0.000000
  0.000000       0.000000       0.000000       0.000000       0.000000       0.000000
  0.000000       0.000000       0.000000       0.000000       0.000000       0.000000
  0.000000       0.000000       0.000000       0.000000       0.000000       0.000000
  0.000000       0.000000       0.000000       0.000000       0.000000       0.000000
  0.000000       0.000000       0.000000       0.000000
  0.000000       0.000000       0.000000       0.000000       0.000000       0.000000
  0.000000       0.000000       0.000000       0.000000       0.000000       0.000000
  0.000000       0.000000       0.000000       0.000000       0.000000       0.000000
  0.000000       0.000000       0.000000       0.000000       0.000000       0.000000
  0.000000       0.000000       0.000000       0.000000       0.000000       0.000000
  0.000000       0.000000       0.000000       0.000000       0.000000       0.000000
  0.000000       0.000000       0.000000       0.000000
  0.000000       0.000000       0.000000       0.000000       0.000000       0.000000
  0.000000       0.000000       0.000000       0.000000       0.000000       0.000000
  0.000000       0.000000       0.000000       0.000000       0.000000       0.000000
  0.000000       0.000000       0.000000       0.000000       0.000000       0.000000
  0.000000       0.000000       0.000000       0.000000       0.000000       0.000000
  0.000000       0.000000       0.000000       0.000000       0.000000       0.000000
  0.000000       0.000000       0.000000       0.000000
  0.000000       0.000000       0.000000       0.000000       0.000000       0.000000
  0.000000       0.000000       0.000000       0.000000       0.000000       0.000000
  0.000000       0.000000       0.000000       0.000000       0.000000       0.000000
  0.000000       0.000000       0.000000       0.000000       0.000000       0.000000
  0.000000       0.000000       0.000000       0.000000       0.000000       0.000000
  0.000000       0.000000       0.000000       0.000000       0.000000       0.000000
  0.000000       0.000000       0.000000       0.000000
  0.000000       0.000000       0.000000       0.000000       0.000000       0.000000
  0.000000       0.000000       0.000000       0.000000       0.000000       0.000000
  0.000000       0.000000       0.000000       0.000000       0.000000       0.000000
  0.000000       0.000000       0.000000       0.000000       0.000000       0.000000
  0.000000       0.000000       0.000000       0.000000       0.000000       0.000000
  0.000000       0.000000       0.000000       0.000000       0.000000       0.000000
  0.000000       0.000000       0.000000       0.000000
  0.000000       0.000000       0.000000       0.000000       0.000000       0.000000
  0.000000       0.000000       0.000000       0.000000       0.000000       0.000000
  0.000000       0.000000       0.000000       0.000000       0.000000       0.000000
  0.000000       0.000000       0.000000       0.000000       0.000000       0.000000
  0.000000       0.000000       0.000000       0.000000       0.000000       0.000000
  0.000000       0.000000       0.000000       0.000000       0.000000       0.000000
  0.000000       0.000000       0.000000       0.000000
  0.000000       0.000000       0.000000       0.000000       0.000000       0.000000
  0.000000       0.000000       0.000000       0.000000       0.000000       0.000000
  0.000000       0.000000       0.000000       0.000000       0.000000       0.000000
  0.000000       0.000000       0.000000       0.000000       0.000000       0.000000
  0.000000       0.000000       0.000000       0.000000       0.000000       0.000000
  0.000000       0.000000       0.000000       0.000000       0.000000       0.000000
  0.000000       0.000000       0.000000       0.000000
  0.000000       0.000000       0.000000       0.000000       0.000000       0.000000
  0.000000       0.000000       0.000000       0.000000       0.000000       0.000000
  0.000000       0.000000       0.000000       0.000000       0.000000       0.000000
  0.000000       0.000000       0.000000       0.000000       0.000000       0.000000
  0.000000       0.000000       0.000000       0.000000       0.000000       0.000000
  0.000000       0.000000       0.000000       0.000000       0.000000       0.000000
  0.000000       0.000000       0.000000       0.000000
  0.000000       0.000000       0.000000       0.000000       0.000000       0.000000
  0.000000       0.000000       0.000000       0.000000       0.000000       0.000000
  0.000000       0.000000       0.000000       0.000000       0.000000       0.000000
  0.000000       0.000000       0.000000       0.000000       0.000000       0.000000
  0.000000       0.000000       0.000000       0.000000       0.000000       0.000000
  0.000000       0.000000       0.000000       0.000000       0.000000       0.000000
  0.000000       0.000000       0.000000       0.000000
  0.000000       0.000000       0.000000       0.000000       0.000000       0.000000
  0.000000       0.000000       0.000000       0.000000       0.000000       0.000000
  0.000000       0.000000       0.000000       0.000000       0.000000       0.000000
  0.000000       0.000000       0.000000       0.000000       0.000000       0.000000
  0.000000       0.000000       0.000000       0.000000       0.000000       0.000000
  0.000000       0.000000       0.000000       0.000000       0.000000       0.000000
  0.000000       0.000000       0.000000       0.000000
  0.000000       0.000000       0.000000       0.000000       0.000000       0.000000
  0.000000       0.000000       0.000000       0.000000       0.000000       0.000000
  0.000000       0.000000       0.000000       0.000000       0.000000       0.000000
  0.000000       0.000000       0.000000       0.000000       0.000000       0.000000
  0.000000       0.000000       0.000000       0.000000       0.000000       0.000000
  0.000000       0.000000       0.000000       0.000000       0.000000       0.000000
  0.000000       0.000000       0.000000       0.000000
  0.000000       0.000000       0.000000       0.000000       0.000000       0.000000
  0.000000       0.000000       0.000000       0.000000       0.000000       0.000000
  0.000000       0.000000       0.000000       0.000000       0.000000       0.000000
  0.000000       0.000000       0.000000       0.000000       0.000000       0.000000
  0.000000       0.000000       0.000000       0.000000       0.000000       0.000000
  0.000000       0.000000       0.000000       0.000000       0.000000       0.000000
  0.000000       0.000000       0.000000       0.000000
  0.000000       0.000000       0.000000       0.000000       0.000000       0.000000
  0.000000       0.000000       0.000000       0.000000       0.000000       0.000000
  0.000000       0.000000       0.000000       0.000000       0.000000       0.000000
  0.000000       0.000000       0.000000       0.000000       0.000000       0.000000
  0.000000       0.000000       0.000000       0.000000       0.000000       0.000000
  0.000000       0.000000       0.000000       0.000000       0.000000       0.000000
  0.000000       0.000000       0.000000       0.000000
  0.000000       0.000000       0.000000       0.000000       0.000000       0.000000
  0.000000       0.000000       0.000000       0.000000       0.000000       0.000000
  0.000000       0.000000       0.000000       0.000000       0.000000       0.000000
  0.000000       0.000000       0.000000       0.000000       0.000000       0.000000
  0.000000       0.000000       0.000000       0.000000       0.000000       0.000000
  0.000000       0.000000       0.000000       0.000000       0.000000       0.000000
  0.000000       0.000000       0.000000       0.000000
  0.000000       0.000000       0.000000       0.000000       0.000000       0.000000
  0.000000       0.000000       0.000000       0.000000       0.000000       0.000000
  0.000000       0.000000       0.000000       0.000000       0.000000       0.000000
  0.000000       0.000000       0.000000       0.000000       0.000000       0.000000
  0.000000       0.000000       0.000000       0.000000       0.000000       0.000000
  0.000000       0.000000       0.000000       0.000000       0.000000       0.000000
  0.000000       0.000000       0.000000       0.000000
  0.000000       0.000000       0.000000       0.000000       0.000000       0.000000
  0.000000       0.000000       0.000000       0.000000       0.000000       0.000000
  0.000000       0.000000       0.000000       0.000000       0.000000       0.000000
  0.000000       0.000000       0.000000       0.000000       0.000000       0.000000
  0.000000       0.000000       0.000000       0.000000       0.000000       0.000000
  0.000000       0.000000       0.000000       0.000000       0.000000       0.000000
  0.000000       0.000000       0.000000       0.000000
  0.000000       0.000000       0.000000       0.000000       0.000000       0.000000
  0.000000       0.000000       0.000000       0.000000       0.000000       0.000000
  0.000000       0.000000       0.000000       0.000000       0.000000       0.000000
  0.000000       0.000000       0.000000       0.000000       0.000000       0.000000
  0.000000       0.000000       0.000000       0.000000       0.000000       0.000000
  0.000000       0.000000       0.000000       0.000000       0.000000       0.000000
  0.000000       0.000000       0.000000       0.000000
  0.000000       0.000000       0.000000       0.000000       0.000000       0.000000
  0.000000       0.000000       0.000000       0.000000       0.000000       0.000000
  0.000000       0.000000       0.000000       0.000000       0.000000       0.000000
  0.000000       0.000000       0.000000       0.000000       0.000000       0.000000
  0.000000       0.000000       0.000000       0.000000       0.000000       0.000000
  0.000000       0.000000       0.000000       0.000000       0.000000       0.000000
  0.000000       0.000000       0.000000       0.000000
  0.000000       0.000000       0.000000       0.000000       0.000000       0.000000
  0.000000       0.000000       0.000000       0.000000       0.000000       0.000000
  0.000000       0.000000       0.000000       0.000000       0.000000       0.000000
  0.000000       0.000000       0.000000       0.000000       0.000000       0.000000
  0.000000       0.000000       0.000000       0.000000       0.000000       0.000000
  0.000000       0.000000       0.000000       0.000000       0.000000       0.000000
  0.000000       0.000000       0.000000       0.000000
  0.000000       0.000000       0.000000       0.000000       0.000000       0.000000
  0.000000       0.000000       0.000000       0.000000       0.000000       0.000000
  0.000000       0.000000       0.000000       0.000000       0.000000       0.000000
  0.000000       0.000000       0.000000       0.000000       0.000000       0.000000
  0.000000       0.000000       0.000000       0.000000       0.000000       0.000000
  0.000000       0.000000       0.000000       0.000000       0.000000       0.000000
  0.000000       0.000000       0.000000       0.000000
  0.000000       0.000000       0.000000       0.000000       0.000000       0.000000
  0.000000       0.000000       0.000000       0.000000       0.000000       0.000000
  0.000000       0.000000       0.000000       0.000000       0.000000       0.000000
  0.000000       0.000000       0.000000       0.000000       0.000000       0.000000
  0.000000       0.000000       0.000000       0.000000       0.000000       0.000000
  0.000000       0.000000       0.000000       0.000000       0.000000       0.000000
  0.000000       0.000000       0.000000       0.000000
  0.000000       0.000000       0.000000       0.000000       0.000000       0.000000
  0.000000       0.000000       0.000000       0.000000       0.000000       0.000000
  0.000000       0.000000       0.000000       0.000000       0.000000       0.000000
  0.000000       0.000000       0.000000       0.000000       0.000000       0.000000
  0.000000       0.000000       0.000000       0.000000       0.000000       0.000000
  0.000000       0.000000       0.000000       0.000000       0.000000       0.000000
  0.000000       0.000000       0.000000       0.000000
  0.000000       0.000000       0.000000       0.000000       0.000000       0.000000
  0.000000       0.000000       0.000000       0.000000       0.000000       0.000000
  0.000000       0.000000       0.000000       0.000000       0.000000       0.000000
  0.000000       0.000000       0.000000       0.000000       0.000000       0.000000
  0.000000       0.000000       0.000000       0.000000       0.000000       0.000000
  0.000000       0.000000       0.000000       0.000000       0.000000       0.000000
  0.000000       0.000000       0.000000       0.000000
  0.000000       0.000000       0.000000       0.000000       0.000000       0.000000
  0.000000       0.000000       0.000000       0.000000       0.000000       0.000000
  0.000000       0.000000       0.000000       0.000000       0.000000       0.000000
  0.000000       0.000000       0.000000       0.000000       0.000000       0.000000
  0.000000       0.000000       0.000000       0.000000       0.000000       0.000000
  0.000000       0.000000       0.000000       0.000000       0.000000       0.000000
  0.000000       0.000000       0.000000       0.000000
  0.000000       0.000000       0.000000       0.000000       0.000000       0.000000
  0.000000       0.000000       0.000000       0.000000       0.000000       0.000000
  0.000000       0.000000       0.000000       0.000000       0.000000       0.000000
  0.000000       0.000000       0.000000       0.000000       0.000000       0.000000
  0.000000       0.000000       0.000000       0.000000       0.000000       0.000000
  0.000000       0.000000       0.000000       0.000000       0.000000       0.000000
  0.000000       0.000000       0.000000       0.000000
  0.000000       0.000000       0.000000       0.000000       0.000000       0.000000
  0.000000       0.000000       0.000000       0.000000       0.000000       0.000000
  0.000000       0.000000       0.000000       0.000000       0.000000       0.000000
  0.000000       0.000000       0.000000       0.000000       0.000000       0.000000
  0.000000       0.000000       0.000000       0.000000       0.000000       0.000000
  0.000000       0.000000       0.000000       0.000000       0.000000       0.000000
  0.000000       0.000000       0.000000       0.000000
  0.000000       0.000000       0.000000       0.000000       0.000000       0.000000
  0.000000       0.000000       0.000000       0.000000       0.000000       0.000000
  0.000000       0.000000       0.000000       0.000000       0.000000       0.000000
  0.000000       0.000000       0.000000       0.000000       0.000000       0.000000
  0.000000       0.000000       0.000000       0.000000       0.000000       0.000000
  0.000000       0.000000       0.000000       0.000000       0.000000       0.000000
  0.000000       0.000000       0.000000       0.000000
  0.000000       0.000000       0.000000       0.000000       0.000000       0.000000
  0.000000       0.000000       0.000000       0.000000       0.000000       0.000000
  0.000000       0.000000       0.000000       0.000000       0.000000       0.000000
  0.000000       0.000000       0.000000       0.000000       0.000000       0.000000
  0.000000       0.000000       0.000000       0.000000       0.000000       0.000000
  0.000000       0.000000       0.000000       0.000000       0.000000       0.000000
  0.000000       0.000000       0.000000       0.000000
  0.000000       0.000000       0.000000       0.000000       0.000000       0.000000
  0.000000       0.000000       0.000000       0.000000       0.000000       0.000000
  0.000000       0.000000       0.000000       0.000000       0.000000       0.000000
  0.000000       0.000000       0.000000       0.000000       0.000000       0.000000
  0.000000       0.000000       0.000000       0.000000       0.000000       0.000000
  0.000000       0.000000       0.000000       0.000000       0.000000       0.000000
  0.000000       0.000000       0.000000       0.000000
END PERIOD
