# NPF8 input file, prepared by mf5to15 on 6/26/2015 at 9:34:42.

BEGIN Options
END Options

BEGIN GRIDDATA
  Icelltype LAYERED
    CONSTANT  1
    CONSTANT  1
    CONSTANT  1
    CONSTANT  1
    CONSTANT  1
    CONSTANT  1
    CONSTANT  1
    CONSTANT  1
    CONSTANT  1
    CONSTANT  0
    CONSTANT  0
    CONSTANT  0
    CONSTANT  0
    CONSTANT  0
  k  LAYERED
    CONSTANT    5.00000000    
    CONSTANT    5.00000000    
    CONSTANT    5.00000000    
    CONSTANT    5.00000000    
    CONSTANT    5.00000000    
    CONSTANT    5.00000000    
    CONSTANT    5.00000000    
    CONSTANT    5.00000000    
    CONSTANT    5.00000000    
    CONSTANT    5.00000000    
    CONSTANT    5.00000000    
    CONSTANT    5.00000000    
    CONSTANT    5.00000000    
    CONSTANT    5.00000000    
  K33  LAYERED
    CONSTANT   0.250000000    
    CONSTANT   0.250000000    
    CONSTANT   0.250000000    
    CONSTANT   0.250000000    
    CONSTANT   0.250000000    
    CONSTANT   0.250000000    
    CONSTANT   0.250000000    
    CONSTANT   0.250000000    
    CONSTANT   0.250000000    
    CONSTANT   0.250000000    
    CONSTANT   0.250000000    
    CONSTANT   0.250000000    
    CONSTANT   0.250000000    
    CONSTANT   0.250000000    
END GRIDDATA
