BEGIN DIMENSIONS
  MAXBOUND 36
END DIMENSIONS

BEGIN PERIOD 1
      19225                 800   1.6951677999999999
      19625                 800   3.3903355999999998
      20026                 800   1.6951677999999999
      20426                 800   3.3903355999999998
      20827                 800   1.6951677999999999
      21227                 800   3.3903355999999998
      21628                 800   1.6951677999999999
      22028                 800   3.3903355999999998
      22429                 800   1.6951677999999999
      22829                 800   3.3903355999999998
      23230                 800   1.6951677999999999
      23630                 800   3.3903355999999998
      24031                 800   1.6951677999999999
      24431                 800   3.3903355999999998
      24832                 800   1.6951677999999999
      25232                 800   3.3903355999999998
      25633                 800   1.6951677999999999
      26033                 800   3.3903355999999998
      26434                 800   1.6951677999999999
      26834                 800   3.3903355999999998
      27235                 800   1.6951677999999999
      27635                 800   3.3903355999999998
      28036                 800   1.6951677999999999
      28436                 800   3.3903355999999998
      28837                 800   1.6951677999999999
      29237                 800   3.3903355999999998
      29638                 800   1.6951677999999999
      30038                 800   3.3903355999999998
      30439                 800   1.6951677999999999
      30838                 100   1.6951677999999999
      30839                 800   3.3903355999999998
      31239                 100   3.3903355999999998
      31240                 800   1.6951677999999999
      31639                 100   1.6951677999999999
      31640                 800   4.3062941855417991
      32040                 100    5.828560621933609
END PERIOD

