BEGIN OPTIONS
  PRINT_FLOWS
END OPTIONS

BEGIN DIMENSIONS
  NUMGNC 63122
  NUMALPHAJ 1
END DIMENSIONS

BEGIN GNCDATA
        401         1       402  0.66666666666666663
        402         1       401  0.33333333333333337
        402         2       403                  0.5
        403         2       402                  0.5
        403         3       404                  0.5
        404         3       403                  0.5
        404         4       405                  0.5
        405         4       404                  0.5
        405         5       406                  0.5
        406         5       405                  0.5
        406         6       407                  0.5
        407         6       406                  0.5
        407         7       408                  0.5
        408         7       407                  0.5
        408         8       409                  0.5
        409         8       408                  0.5
        409         9       410                  0.5
        410         9       409                  0.5
        410        10       411                  0.5
        411        10       410                  0.5
        411        11       412                  0.5
        412        11       411                  0.5
        412        12       413                  0.5
        413        12       412                  0.5
        413        13       414                  0.5
        414        13       413                  0.5
        414        14       415                  0.5
        415        14       414                  0.5
        415        15       416                  0.5
        416        15       415                  0.5
        416        16       417                  0.5
        417        16       416                  0.5
        417        17       418                  0.5
        418        17       417                  0.5
        418        18       419                  0.5
        419        18       418                  0.5
        419        19       420                  0.5
        420        19       419                  0.5
        420        20       421                  0.5
        421        20       420                  0.5
        421        21       422                  0.5
        422        21       421                  0.5
        422        22       423                  0.5
        423        22       422                  0.5
        423        23       424                  0.5
        424        23       423                  0.5
        424        24       425                  0.5
        425        24       424                  0.5
        425        25       426                  0.5
        426        25       425                  0.5
        426        26       427                  0.5
        427        26       426                  0.5
        427        27       428                  0.5
        428        27       427                  0.5
        428        28       429                  0.5
        429        28       428                  0.5
        429        29       430                  0.5
        430        29       429                  0.5
        430        30       431                  0.5
        431        30       430                  0.5
        431        31       432                  0.5
        432        31       431                  0.5
        432        32       433                  0.5
        433        32       432                  0.5
        433        33       434                  0.5
        434        33       433                  0.5
        434        34       435                  0.5
        435        34       434                  0.5
        435        35       436                  0.5
        436        35       435                  0.5
        436        36       437                  0.5
        437        36       436                  0.5
        437        37       438                  0.5
        438        37       437                  0.5
        438        38       439                  0.5
        439        38       438                  0.5
        439        39       440                  0.5
        440        39       439                  0.5
        440        40       441                  0.5
        441        40       440                  0.5
        441        41       442                  0.5
        442        41       441                  0.5
        442        42       443                  0.5
        443        42       442                  0.5
        443        43       444                  0.5
        444        43       443                  0.5
        444        44       445                  0.5
        445        44       444                  0.5
        445        45       446                  0.5
        446        45       445                  0.5
        446        46       447                  0.5
        447        46       446                  0.5
        447        47       448                  0.5
        448        47       447                  0.5
        448        48       449                  0.5
        449        48       448                  0.5
        449        49       450                  0.5
        450        49       449                  0.5
        450        50       451                  0.5
        451        50       450                  0.5
        451        51       452                  0.5
        452        51       451                  0.5
        452        52       453                  0.5
        453        52       452                  0.5
        453        53       454                  0.5
        454        53       453                  0.5
        454        54       455                  0.5
        455        54       454                  0.5
        455        55       456                  0.5
        456        55       455                  0.5
        456        56       457                  0.5
        457        56       456                  0.5
        457        57       458                  0.5
        458        57       457                  0.5
        458        58       459                  0.5
        459        58       458                  0.5
        459        59       460                  0.5
        460        59       459                  0.5
        460        60       461                  0.5
        461        60       460                  0.5
        461        61       462                  0.5
        462        61       461                  0.5
        462        62       463                  0.5
        463        62       462                  0.5
        463        63       464                  0.5
        464        63       463                  0.5
        464        64       465                  0.5
        465        64       464                  0.5
        465        65       466                  0.5
        466        65       465                  0.5
        466        66       467                  0.5
        467        66       466                  0.5
        467        67       468                  0.5
        468        67       467                  0.5
        468        68       469                  0.5
        469        68       468                  0.5
        469        69       470                  0.5
        470        69       469                  0.5
        470        70       471                  0.5
        471        70       470                  0.5
        471        71       472                  0.5
        472        71       471                  0.5
        472        72       473                  0.5
        473        72       472                  0.5
        473        73       474                  0.5
        474        73       473                  0.5
        474        74       475                  0.5
        475        74       474                  0.5
        475        75       476                  0.5
        476        75       475                  0.5
        476        76       477                  0.5
        477        76       476                  0.5
        477        77       478                  0.5
        478        77       477                  0.5
        478        78       479                  0.5
        479        78       478                  0.5
        479        79       480                  0.5
        480        79       479                  0.5
        480        80       481                  0.5
        481        80       480                  0.5
        481        81       482                  0.5
        482        81       481                  0.5
        482        82       483                  0.5
        483        82       482                  0.5
        483        83       484                  0.5
        484        83       483                  0.5
        484        84       485                  0.5
        485        84       484                  0.5
        485        85       486                  0.5
        486        85       485                  0.5
        486        86       487                  0.5
        487        86       486                  0.5
        487        87       488                  0.5
        488        87       487                  0.5
        488        88       489                  0.5
        489        88       488                  0.5
        489        89       490                  0.5
        490        89       489                  0.5
        490        90       491                  0.5
        491        90       490                  0.5
        491        91       492                  0.5
        492        91       491                  0.5
        492        92       493                  0.5
        493        92       492                  0.5
        493        93       494                  0.5
        494        93       493                  0.5
        494        94       495                  0.5
        495        94       494                  0.5
        495        95       496                  0.5
        496        95       495                  0.5
        496        96       497                  0.5
        497        96       496                  0.5
        497        97       498                  0.5
        498        97       497                  0.5
        498        98       499                  0.5
        499        98       498                  0.5
        499        99       500                  0.5
        500        99       499                  0.5
        500       100       501                  0.5
        501       100       500                  0.5
        501       101       502                  0.5
        502       101       501                  0.5
        502       102       503                  0.5
        503       102       502                  0.5
        503       103       504                  0.5
        504       103       503                  0.5
        504       104       505                  0.5
        505       104       504                  0.5
        505       105       506                  0.5
        506       105       505                  0.5
        506       106       507                  0.5
        507       106       506                  0.5
        507       107       508                  0.5
        508       107       507                  0.5
        508       108       509                  0.5
        509       108       508                  0.5
        509       109       510                  0.5
        510       109       509                  0.5
        510       110       511                  0.5
        511       110       510                  0.5
        511       111       512                  0.5
        512       111       511                  0.5
        512       112       513                  0.5
        513       112       512                  0.5
        513       113       514                  0.5
        514       113       513                  0.5
        514       114       515                  0.5
        515       114       514                  0.5
        515       115       516                  0.5
        516       115       515                  0.5
        516       116       517                  0.5
        517       116       516                  0.5
        517       117       518                  0.5
        518       117       517                  0.5
        518       118       519                  0.5
        519       118       518                  0.5
        519       119       520                  0.5
        520       119       519                  0.5
        520       120       521                  0.5
        521       120       520                  0.5
        521       121       522                  0.5
        522       121       521                  0.5
        522       122       523                  0.5
        523       122       522                  0.5
        523       123       524                  0.5
        524       123       523                  0.5
        524       124       525                  0.5
        525       124       524                  0.5
        525       125       526                  0.5
        526       125       525                  0.5
        526       126       527                  0.5
        527       126       526                  0.5
        527       127       528                  0.5
        528       127       527                  0.5
        528       128       529                  0.5
        529       128       528                  0.5
        529       129       530                  0.5
        530       129       529                  0.5
        530       130       531                  0.5
        531       130       530                  0.5
        531       131       532                  0.5
        532       131       531                  0.5
        532       132       533                  0.5
        533       132       532                  0.5
        533       133       534                  0.5
        534       133       533                  0.5
        534       134       535                  0.5
        535       134       534                  0.5
        535       135       536                  0.5
        536       135       535                  0.5
        536       136       537                  0.5
        537       136       536                  0.5
        537       137       538                  0.5
        538       137       537                  0.5
        538       138       539                  0.5
        539       138       538                  0.5
        539       139       540                  0.5
        540       139       539                  0.5
        540       140       541                  0.5
        541       140       540                  0.5
        541       141       542                  0.5
        542       141       541                  0.5
        542       142       543                  0.5
        543       142       542                  0.5
        543       143       544                  0.5
        544       143       543                  0.5
        544       144       545                  0.5
        545       144       544                  0.5
        545       145       546                  0.5
        546       145       545                  0.5
        546       146       547                  0.5
        547       146       546                  0.5
        547       147       548                  0.5
        548       147       547                  0.5
        548       148       549                  0.5
        549       148       548                  0.5
        549       149       550                  0.5
        550       149       549                  0.5
        550       150       551                  0.5
        551       150       550                  0.5
        551       151       552                  0.5
        552       151       551                  0.5
        552       152       553                  0.5
        553       152       552                  0.5
        553       153       554                  0.5
        554       153       553                  0.5
        554       154       555                  0.5
        555       154       554                  0.5
        555       155       556                  0.5
        556       155       555                  0.5
        556       156       557                  0.5
        557       156       556                  0.5
        557       157       558                  0.5
        558       157       557                  0.5
        558       158       559                  0.5
        559       158       558                  0.5
        559       159       560                  0.5
        560       159       559                  0.5
        560       160       561                  0.5
        561       160       560                  0.5
        561       161       562                  0.5
        562       161       561                  0.5
        562       162       563                  0.5
        563       162       562                  0.5
        563       163       564                  0.5
        564       163       563                  0.5
        564       164       565                  0.5
        565       164       564                  0.5
        565       165       566                  0.5
        566       165       565                  0.5
        566       166       567                  0.5
        567       166       566                  0.5
        567       167       568                  0.5
        568       167       567                  0.5
        568       168       569                  0.5
        569       168       568                  0.5
        569       169       570                  0.5
        570       169       569                  0.5
        570       170       571                  0.5
        571       170       570                  0.5
        571       171       572                  0.5
        572       171       571                  0.5
        572       172       573                  0.5
        573       172       572                  0.5
        573       173       574                  0.5
        574       173       573                  0.5
        574       174       575                  0.5
        575       174       574                  0.5
        575       175       576                  0.5
        576       175       575                  0.5
        576       176       577                  0.5
        577       176       576                  0.5
        577       177       578                  0.5
        578       177       577                  0.5
        578       178       579                  0.5
        579       178       578                  0.5
        579       179       580                  0.5
        580       179       579                  0.5
        580       180       581                  0.5
        581       180       580                  0.5
        581       181       582                  0.5
        582       181       581                  0.5
        582       182       583                  0.5
        583       182       582                  0.5
        583       183       584                  0.5
        584       183       583                  0.5
        584       184       585                  0.5
        585       184       584                  0.5
        585       185       586                  0.5
        586       185       585                  0.5
        586       186       587                  0.5
        587       186       586                  0.5
        587       187       588                  0.5
        588       187       587                  0.5
        588       188       589                  0.5
        589       188       588                  0.5
        589       189       590                  0.5
        590       189       589                  0.5
        590       190       591                  0.5
        591       190       590                  0.5
        591       191       592                  0.5
        592       191       591                  0.5
        592       192       593                  0.5
        593       192       592                  0.5
        593       193       594                  0.5
        594       193       593                  0.5
        594       194       595                  0.5
        595       194       594                  0.5
        595       195       596                  0.5
        596       195       595                  0.5
        596       196       597                  0.5
        597       196       596                  0.5
        597       197       598                  0.5
        598       197       597                  0.5
        598       198       599                  0.5
        599       198       598                  0.5
        599       199       600                  0.5
        600       199       599                  0.5
        600       200       601                  0.5
        601       200       600                  0.5
        601       201       602                  0.5
        602       201       601                  0.5
        602       202       603                  0.5
        603       202       602                  0.5
        603       203       604                  0.5
        604       203       603                  0.5
        604       204       605                  0.5
        605       204       604                  0.5
        605       205       606                  0.5
        606       205       605                  0.5
        606       206       607                  0.5
        607       206       606                  0.5
        607       207       608                  0.5
        608       207       607                  0.5
        608       208       609                  0.5
        609       208       608                  0.5
        609       209       610                  0.5
        610       209       609                  0.5
        610       210       611                  0.5
        611       210       610                  0.5
        611       211       612                  0.5
        612       211       611                  0.5
        612       212       613                  0.5
        613       212       612                  0.5
        613       213       614                  0.5
        614       213       613                  0.5
        614       214       615                  0.5
        615       214       614                  0.5
        615       215       616                  0.5
        616       215       615                  0.5
        616       216       617                  0.5
        617       216       616                  0.5
        617       217       618                  0.5
        618       217       617                  0.5
        618       218       619                  0.5
        619       218       618                  0.5
        619       219       620                  0.5
        620       219       619                  0.5
        620       220       621                  0.5
        621       220       620                  0.5
        621       221       622                  0.5
        622       221       621                  0.5
        622       222       623                  0.5
        623       222       622                  0.5
        623       223       624                  0.5
        624       223       623                  0.5
        624       224       625                  0.5
        625       224       624                  0.5
        625       225       626                  0.5
        626       225       625                  0.5
        626       226       627                  0.5
        627       226       626                  0.5
        627       227       628                  0.5
        628       227       627                  0.5
        628       228       629                  0.5
        629       228       628                  0.5
        629       229       630                  0.5
        630       229       629                  0.5
        630       230       631                  0.5
        631       230       630                  0.5
        631       231       632                  0.5
        632       231       631                  0.5
        632       232       633                  0.5
        633       232       632                  0.5
        633       233       634                  0.5
        634       233       633                  0.5
        634       234       635                  0.5
        635       234       634                  0.5
        635       235       636                  0.5
        636       235       635                  0.5
        636       236       637                  0.5
        637       236       636                  0.5
        637       237       638                  0.5
        638       237       637                  0.5
        638       238       639                  0.5
        639       238       638                  0.5
        639       239       640                  0.5
        640       239       639                  0.5
        640       240       641                  0.5
        641       240       640                  0.5
        641       241       642                  0.5
        642       241       641                  0.5
        642       242       643                  0.5
        643       242       642                  0.5
        643       243       644                  0.5
        644       243       643                  0.5
        644       244       645                  0.5
        645       244       644                  0.5
        645       245       646                  0.5
        646       245       645                  0.5
        646       246       647                  0.5
        647       246       646                  0.5
        647       247       648                  0.5
        648       247       647                  0.5
        648       248       649                  0.5
        649       248       648                  0.5
        649       249       650                  0.5
        650       249       649                  0.5
        650       250       651                  0.5
        651       250       650                  0.5
        651       251       652                  0.5
        652       251       651                  0.5
        652       252       653                  0.5
        653       252       652                  0.5
        653       253       654                  0.5
        654       253       653                  0.5
        654       254       655                  0.5
        655       254       654                  0.5
        655       255       656                  0.5
        656       255       655                  0.5
        656       256       657                  0.5
        657       256       656                  0.5
        657       257       658                  0.5
        658       257       657                  0.5
        658       258       659                  0.5
        659       258       658                  0.5
        659       259       660                  0.5
        660       259       659                  0.5
        660       260       661                  0.5
        661       260       660                  0.5
        661       261       662                  0.5
        662       261       661                  0.5
        662       262       663                  0.5
        663       262       662                  0.5
        663       263       664                  0.5
        664       263       663                  0.5
        664       264       665                  0.5
        665       264       664                  0.5
        665       265       666                  0.5
        666       265       665                  0.5
        666       266       667                  0.5
        667       266       666                  0.5
        667       267       668                  0.5
        668       267       667                  0.5
        668       268       669                  0.5
        669       268       668                  0.5
        669       269       670                  0.5
        670       269       669                  0.5
        670       270       671                  0.5
        671       270       670                  0.5
        671       271       672                  0.5
        672       271       671                  0.5
        672       272       673                  0.5
        673       272       672                  0.5
        673       273       674                  0.5
        674       273       673                  0.5
        674       274       675                  0.5
        675       274       674                  0.5
        675       275       676                  0.5
        676       275       675                  0.5
        676       276       677                  0.5
        677       276       676                  0.5
        677       277       678                  0.5
        678       277       677                  0.5
        678       278       679                  0.5
        679       278       678                  0.5
        679       279       680                  0.5
        680       279       679                  0.5
        680       280       681                  0.5
        681       280       680                  0.5
        681       281       682                  0.5
        682       281       681                  0.5
        682       282       683                  0.5