BEGIN DIMENSIONS
  MAXBOUND 24
END DIMENSIONS

BEGIN PERIOD 1
        169 0.071999999999999995
        170 0.071999999999999995
        171 0.071999999999999995
        172 0.071999999999999995
        173 0.071999999999999995
        174 0.071999999999999995
        175 0.071999999999999995
        176 0.071999999999999995
        177 0.071999999999999995
        178 0.071999999999999995
        179 0.071999999999999995
        180 0.071999999999999995
        181 0.071999999999999995
        182 0.071999999999999995
        183 0.071999999999999995
        184 0.071999999999999995
        185 0.071999999999999995
        186 0.071999999999999995
        187 0.071999999999999995
        188 0.071999999999999995
        189 0.071999999999999995
        190 0.071999999999999995
        191 0.071999999999999995
        192 0.071999999999999995
END PERIOD

