BEGIN OPTIONS
  DEV_MODFLOWUSG_UPSTREAM_WEIGHTED_SATURATION
  PRINT_FLOWS
END OPTIONS

BEGIN GRIDDATA
  ICELLTYPE
    CONSTANT 1

  K
    INTERNAL
     0.84758389999999995  0.84758389999999995  0.84758389999999995  0.84758389999999995  0.84758389999999995  0.84758389999999995  0.84758389999999995  0.84758389999999995  0.84758389999999995  0.84758389999999995
     0.84758389999999995  0.84758389999999995  0.84758389999999995  0.84758389999999995  0.84758389999999995  0.84758389999999995  0.84758389999999995  0.84758389999999995  0.84758389999999995  0.84758389999999995
     0.84758389999999995  0.84758389999999995  0.84758389999999995  0.84758389999999995  0.84758389999999995  0.84758389999999995  0.84758389999999995  0.84758389999999995  0.84758389999999995  0.84758389999999995
     0.84758389999999995  0.84758389999999995  0.84758389999999995  0.84758389999999995  0.84758389999999995  0.84758389999999995  0.84758389999999995  0.84758389999999995  0.84758389999999995  0.84758389999999995
     0.84758389999999995  0.84758389999999995  0.84758389999999995  0.84758389999999995  0.84758389999999995  0.84758389999999995  0.84758389999999995  0.84758389999999995  0.84758389999999995  0.84758389999999995
     0.84758389999999995  0.84758389999999995  0.84758389999999995  0.84758389999999995  0.84758389999999995  0.84758389999999995  0.84758389999999995  0.84758389999999995  0.84758389999999995  0.84758389999999995
     0.84758389999999995  0.84758389999999995  0.84758389999999995  0.84758389999999995  0.84758389999999995  0.84758389999999995  0.84758389999999995  0.84758389999999995  0.84758389999999995  0.84758389999999995
     0.84758389999999995  0.84758389999999995  0.84758389999999995  0.84758389999999995  0.84758389999999995  0.84758389999999995  0.84758389999999995  0.84758389999999995  0.84758389999999995  0.84758389999999995
     0.84758389999999995  0.84758389999999995  0.84758389999999995  0.84758389999999995  0.84758389999999995  0.84758389999999995  0.84758389999999995  0.84758389999999995  0.84758389999999995  0.84758389999999995
     0.84758389999999995  0.84758389999999995  0.84758389999999995  0.84758389999999995  0.84758389999999995  0.84758389999999995  0.84758389999999995  0.84758389999999995  0.84758389999999995  0.84758389999999995
     0.84758389999999995  0.84758389999999995  0.84758389999999995  0.84758389999999995  0.84758389999999995  0.84758389999999995  0.84758389999999995  0.84758389999999995  0.84758389999999995  0.84758389999999995
     0.84758389999999995  0.84758389999999995  0.84758389999999995  0.84758389999999995  0.84758389999999995  0.84758389999999995  0.84758389999999995  0.84758389999999995  0.84758389999999995  0.84758389999999995
     0.84758389999999995  0.84758389999999995  0.84758389999999995  0.84758389999999995  0.84758389999999995  0.84758389999999995  0.84758389999999995  0.84758389999999995  0.84758389999999995  0.84758389999999995
     0.84758389999999995  0.84758389999999995  0.84758389999999995  0.84758389999999995  0.84758389999999995  0.84758389999999995  0.84758389999999995  0.84758389999999995  0.84758389999999995  0.84758389999999995
     0.84758389999999995  0.84758389999999995  0.84758389999999995  0.84758389999999995  0.84758389999999995  0.84758389999999995  0.84758389999999995  0.84758389999999995  0.84758389999999995  0.84758389999999995
     0.84758389999999995  0.84758389999999995  0.84758389999999995  0.84758389999999995  0.84758389999999995  0.84758389999999995  0.84758389999999995  0.84758389999999995  0.84758389999999995  0.84758389999999995
     0.84758389999999995  0.84758389999999995  0.84758389999999995  0.84758389999999995  0.84758389999999995  0.84758389999999995  0.84758389999999995  0.84758389999999995  0.84758389999999995  0.84758389999999995
     0.84758389999999995  0.84758389999999995  0.84758389999999995  0.84758389999999995  0.84758389999999995  0.84758389999999995  0.84758389999999995  0.84758389999999995  0.84758389999999995  0.84758389999999995
     0.84758389999999995  0.84758389999999995  0.84758389999999995  0.84758389999999995  0.84758389999999995  0.84758389999999995  0.84758389999999995  0.84758389999999995  0.84758389999999995  0.84758389999999995
     0.84758389999999995  0.84758389999999995  0.84758389999999995  0.84758389999999995  0.84758389999999995  0.84758389999999995  0.84758389999999995  0.84758389999999995  0.84758389999999995  0.84758389999999995
     0.84758389999999995  0.84758389999999995  0.84758389999999995  0.84758389999999995  0.84758389999999995  0.84758389999999995  0.84758389999999995  0.84758389999999995  0.84758389999999995  0.84758389999999995
     0.84758389999999995  0.84758389999999995  0.84758389999999995  0.84758389999999995  0.84758389999999995  0.84758389999999995  0.84758389999999995  0.84758389999999995  0.84758389999999995  0.84758389999999995
     0.84758389999999995  0.84758389999999995  0.84758389999999995  0.84758389999999995  0.84758389999999995  0.84758389999999995  0.84758389999999995  0.84758389999999995  0.84758389999999995  0.84758389999999995
     0.84758389999999995  0.84758389999999995  0.84758389999999995  0.84758389999999995  0.84758389999999995  0.84758389999999995  0.84758389999999995  0.84758389999999995  0.84758389999999995  0.84758389999999995
     0.84758389999999995  0.84758389999999995  0.84758389999999995  0.84758389999999995  0.84758389999999995  0.84758389999999995  0.84758389999999995  0.84758389999999995  0.84758389999999995  0.84758389999999995
     0.84758389999999995  0.84758389999999995  0.84758389999999995  0.84758389999999995  0.84758389999999995  0.84758389999999995  0.84758389999999995  0.84758389999999995  0.84758389999999995  0.84758389999999995
     0.84758389999999995  0.84758389999999995  0.84758389999999995  0.84758389999999995  0.84758389999999995  0.84758389999999995  0.84758389999999995  0.84758389999999995  0.84758389999999995  0.84758389999999995
     0.84758389999999995  0.84758389999999995  0.84758389999999995  0.84758389999999995  0.84758389999999995  0.84758389999999995  0.84758389999999995  0.84758389999999995  0.84758389999999995  0.84758389999999995
     0.84758389999999995  0.84758389999999995  0.84758389999999995  0.84758389999999995  0.84758389999999995  0.84758389999999995  0.84758389999999995  0.84758389999999995  0.84758389999999995  0.84758389999999995
     0.84758389999999995  0.84758389999999995  0.84758389999999995  0.84758389999999995  0.84758389999999995  0.84758389999999995  0.84758389999999995  0.84758389999999995  0.84758389999999995  0.84758389999999995
     0.84758389999999995  0.84758389999999995  0.84758389999999995  0.84758389999999995  0.84758389999999995  0.84758389999999995  0.84758389999999995  0.84758389999999995  0.84758389999999995  0.84758389999999995
     0.84758389999999995  0.84758389999999995  0.84758389999999995  0.84758389999999995  0.84758389999999995  0.84758389999999995  0.84758389999999995  0.84758389999999995  0.84758389999999995  0.84758389999999995
     0.84758389999999995  0.84758389999999995  0.84758389999999995  0.84758389999999995  0.84758389999999995  0.84758389999999995  0.84758389999999995  0.84758389999999995  0.84758389999999995  0.84758389999999995
     0.84758389999999995  0.84758389999999995  0.84758389999999995  0.84758389999999995  0.84758389999999995  0.84758389999999995  0.84758389999999995  0.84758389999999995  0.84758389999999995  0.84758389999999995
     0.84758389999999995  0.84758389999999995  0.84758389999999995  0.84758389999999995  0.84758389999999995  0.84758389999999995  0.84758389999999995  0.84758389999999995  0.84758389999999995  0.84758389999999995
     0.84758389999999995  0.84758389999999995  0.84758389999999995  0.84758389999999995  0.84758389999999995  0.84758389999999995  0.84758389999999995  0.84758389999999995  0.84758389999999995  0.84758389999999995
     0.84758389999999995  0.84758389999999995  0.84758389999999995  0.84758389999999995  0.84758389999999995  0.84758389999999995  0.84758389999999995  0.84758389999999995  0.84758389999999995  0.84758389999999995
     0.84758389999999995  0.84758389999999995  0.84758389999999995  0.84758389999999995  0.84758389999999995  0.84758389999999995  0.84758389999999995  0.84758389999999995  0.84758389999999995  0.84758389999999995
     0.84758389999999995  0.84758389999999995  0.84758389999999995  0.84758389999999995  0.84758389999999995  0.84758389999999995  0.84758389999999995  0.84758389999999995  0.84758389999999995  0.84758389999999995
     0.84758389999999995  0.84758389999999995  0.84758389999999995  0.84758389999999995  0.84758389999999995  0.84758389999999995  0.84758389999999995  0.84758389999999995  0.84758389999999995  0.84758389999999995
     0.84758389999999995  0.84758389999999995  0.84758389999999995  0.84758389999999995  0.84758389999999995  0.84758389999999995  0.84758389999999995  0.84758389999999995  0.84758389999999995  0.84758389999999995
     0.84758389999999995  0.84758389999999995  0.84758389999999995  0.84758389999999995  0.84758389999999995  0.84758389999999995  0.84758389999999995  0.84758389999999995  0.84758389999999995  0.84758389999999995
     0.84758389999999995  0.84758389999999995  0.84758389999999995  0.84758389999999995  0.84758389999999995  0.84758389999999995  0.84758389999999995  0.84758389999999995  0.84758389999999995  0.84758389999999995
     0.84758389999999995  0.84758389999999995  0.84758389999999995  0.84758389999999995  0.84758389999999995  0.84758389999999995  0.84758389999999995  0.84758389999999995  0.84758389999999995  0.84758389999999995
     0.84758389999999995  0.84758389999999995  0.84758389999999995  0.84758389999999995  0.84758389999999995  0.84758389999999995  0.84758389999999995  0.84758389999999995  0.84758389999999995  0.84758389999999995
     0.84758389999999995  0.84758389999999995  0.84758389999999995  0.84758389999999995  0.84758389999999995  0.84758389999999995  0.84758389999999995  0.84758389999999995  0.84758389999999995  0.84758389999999995
     0.84758389999999995  0.84758389999999995  0.84758389999999995  0.84758389999999995  0.84758389999999995  0.84758389999999995  0.84758389999999995  0.84758389999999995  0.84758389999999995  0.84758389999999995
     0.84758389999999995  0.84758389999999995  0.84758389999999995  0.84758389999999995  0.84758389999999995  0.84758389999999995  0.84758389999999995  0.84758389999999995  0.84758389999999995  0.84758389999999995
     0.84758389999999995  0.84758389999999995  0.84758389999999995  0.84758389999999995  0.84758389999999995  0.84758389999999995  0.84758389999999995  0.84758389999999995  0.84758389999999995  0.84758389999999995
     0.84758389999999995  0.84758389999999995  0.84758389999999995  0.84758389999999995  0.84758389999999995  0.84758389999999995  0.84758389999999995  0.84758389999999995  0.84758389999999995  0.84758389999999995
     0.84758389999999995  0.84758389999999995  0.84758389999999995  0.84758389999999995  0.84758389999999995  0.84758389999999995  0.84758389999999995  0.84758389999999995  0.84758389999999995  0.84758389999999995
     0.84758389999999995  0.84758389999999995  0.84758389999999995  0.84758389999999995  0.84758389999999995  0.84758389999999995  0.84758389999999995  0.84758389999999995  0.84758389999999995  0.84758389999999995
     0.84758389999999995  0.84758389999999995  0.84758389999999995  0.84758389999999995  0.84758389999999995  0.84758389999999995  0.84758389999999995  0.84758389999999995  0.84758389999999995  0.84758389999999995
     0.84758389999999995  0.84758389999999995  0.84758389999999995  0.84758389999999995  0.84758389999999995  0.84758389999999995  0.84758389999999995  0.84758389999999995  0.84758389999999995  0.84758389999999995
     0.84758389999999995  0.84758389999999995  0.84758389999999995  0.84758389999999995  0.84758389999999995  0.84758389999999995  0.84758389999999995  0.84758389999999995  0.84758389999999995  0.84758389999999995
     0.84758389999999995  0.84758389999999995  0.84758389999999995  0.84758389999999995  0.84758389999999995  0.84758389999999995  0.84758389999999995  0.84758389999999995  0.84758389999999995  0.84758389999999995
     0.84758389999999995  0.84758389999999995  0.84758389999999995  0.84758389999999995  0.84758389999999995  0.84758389999999995  0.84758389999999995  0.84758389999999995  0.84758389999999995  0.84758389999999995
     0.84758389999999995  0.84758389999999995  0.84758389999999995  0.84758389999999995  0.84758389999999995  0.84758389999999995  0.84758389999999995  0.84758389999999995  0.84758389999999995  0.84758389999999995
     0.84758389999999995  0.84758389999999995  0.84758389999999995  0.84758389999999995  0.84758389999999995  0.84758389999999995  0.84758389999999995  0.84758389999999995  0.84758389999999995  0.84758389999999995
     0.84758389999999995  0.84758389999999995  0.84758389999999995  0.84758389999999995  0.84758389999999995  0.84758389999999995  0.84758389999999995  0.84758389999999995  0.84758389999999995  0.84758389999999995
     0.84758389999999995  0.84758389999999995  0.84758389999999995  0.84758389999999995  0.84758389999999995  0.84758389999999995  0.84758389999999995  0.84758389999999995  0.84758389999999995  0.84758389999999995
     0.84758389999999995  0.84758389999999995  0.84758389999999995  0.84758389999999995  0.84758389999999995  0.84758389999999995  0.84758389999999995  0.84758389999999995  0.84758389999999995  0.84758389999999995
     0.84758389999999995  0.84758389999999995  0.84758389999999995  0.84758389999999995  0.84758389999999995  0.84758389999999995  0.84758389999999995  0.84758389999999995  0.84758389999999995  0.84758389999999995
     0.84758389999999995  0.84758389999999995  0.84758389999999995  0.84758389999999995  0.84758389999999995  0.84758389999999995  0.84758389999999995  0.84758389999999995  0.84758389999999995  0.84758389999999995
     0.84758389999999995  0.84758389999999995  0.84758389999999995  0.84758389999999995  0.84758389999999995  0.84758389999999995  0.84758389999999995  0.84758389999999995  0.84758389999999995  0.84758389999999995
     0.84758389999999995  0.84758389999999995  0.84758389999999995  0.84758389999999995  0.84758389999999995  0.84758389999999995  0.84758389999999995  0.84758389999999995  0.84758389999999995  0.84758389999999995
     0.84758389999999995  0.84758389999999995  0.84758389999999995  0.84758389999999995  0.84758389999999995  0.84758389999999995  0.84758389999999995  0.84758389999999995  0.84758389999999995  0.84758389999999995
     0.84758389999999995  0.84758389999999995  0.84758389999999995  0.84758389999999995  0.84758389999999995  0.84758389999999995  0.84758389999999995  0.84758389999999995  0.84758389999999995  0.84758389999999995
     0.84758389999999995  0.84758389999999995  0.84758389999999995  0.84758389999999995  0.84758389999999995  0.84758389999999995  0.84758389999999995  0.84758389999999995  0.84758389999999995  0.84758389999999995
     0.84758389999999995  0.84758389999999995  0.84758389999999995  0.84758389999999995  0.84758389999999995  0.84758389999999995  0.84758389999999995  0.84758389999999995  0.84758389999999995  0.84758389999999995
     0.84758389999999995  0.84758389999999995  0.84758389999999995  0.84758389999999995  0.84758389999999995  0.84758389999999995  0.84758389999999995  0.84758389999999995  0.84758389999999995  0.84758389999999995
     0.84758389999999995  0.84758389999999995  0.84758389999999995  0.84758389999999995  0.84758389999999995  0.84758389999999995  0.84758389999999995  0.84758389999999995  0.84758389999999995  0.84758389999999995
     0.84758389999999995  0.84758389999999995  0.84758389999999995  0.84758389999999995  0.84758389999999995  0.84758389999999995  0.84758389999999995  0.84758389999999995  0.84758389999999995  0.84758389999999995
     0.84758389999999995  0.84758389999999995  0.84758389999999995  0.84758389999999995  0.84758389999999995  0.84758389999999995  0.84758389999999995  0.84758389999999995  0.84758389999999995  0.84758389999999995
     0.84758389999999995  0.84758389999999995  0.84758389999999995  0.84758389999999995  0.84758389999999995  0.84758389999999995  0.84758389999999995  0.84758389999999995  0.84758389999999995  0.84758389999999995
     0.84758389999999995  0.84758389999999995  0.84758389999999995  0.84758389999999995  0.84758389999999995  0.84758389999999995  0.84758389999999995  0.84758389999999995  0.84758389999999995  0.84758389999999995
     0.84758389999999995  0.84758389999999995  0.84758389999999995  0.84758389999999995  0.84758389999999995  0.84758389999999995  0.84758389999999995  0.84758389999999995  0.84758389999999995  0.84758389999999995
     0.84758389999999995  0.84758389999999995  0.84758389999999995  0.84758389999999995  0.84758389999999995  0.84758389999999995  0.84758389999999995  0.84758389999999995  0.84758389999999995  0.84758389999999995
     0.84758389999999995  0.84758389999999995  0.84758389999999995  0.84758389999999995  0.84758389999999995  0.84758389999999995  0.84758389999999995  0.84758389999999995  0.84758389999999995  0.84758389999999995
     0.84758389999999995  0.84758389999999995  0.84758389999999995  0.84758389999999995  0.84758389999999995  0.84758389999999995  0.84758389999999995  0.84758389999999995  0.84758389999999995  0.84758389999999995
     0.84758389999999995  0.84758389999999995  0.84758389999999995  0.84758389999999995  0.84758389999999995  0.84758389999999995  0.84758389999999995  0.84758389999999995  0.84758389999999995  0.84758389999999995
     0.84758389999999995  0.84758389999999995  0.84758389999999995  0.84758389999999995  0.84758389999999995  0.84758389999999995  0.84758389999999995  0.84758389999999995  0.84758389999999995  0.84758389999999995
     0.84758389999999995  0.84758389999999995  0.84758389999999995  0.84758389999999995  0.84758389999999995  0.84758389999999995  0.84758389999999995  0.84758389999999995  0.84758389999999995  0.84758389999999995
     0.84758389999999995  0.84758389999999995  0.84758389999999995  0.84758389999999995  0.84758389999999995  0.84758389999999995  0.84758389999999995  0.84758389999999995  0.84758389999999995  0.84758389999999995
     0.84758389999999995  0.84758389999999995  0.84758389999999995  0.84758389999999995  0.84758389999999995  0.84758389999999995  0.84758389999999995  0.84758389999999995  0.84758389999999995  0.84758389999999995
     0.84758389999999995  0.84758389999999995  0.84758389999999995  0.84758389999999995  0.84758389999999995  0.84758389999999995  0.84758389999999995  0.84758389999999995  0.84758389999999995  0.84758389999999995
     0.84758389999999995  0.84758389999999995  0.84758389999999995  0.84758389999999995  0.84758389999999995  0.84758389999999995  0.84758389999999995  0.84758389999999995  0.84758389999999995  0.84758389999999995
     0.84758389999999995  0.84758389999999995  0.84758389999999995  0.84758389999999995  0.84758389999999995  0.84758389999999995  0.84758389999999995  0.84758389999999995  0.84758389999999995  0.84758389999999995
     0.84758389999999995  0.84758389999999995  0.84758389999999995  0.84758389999999995  0.84758389999999995  0.84758389999999995  0.84758389999999995  0.84758389999999995  0.84758389999999995  0.84758389999999995
     0.84758389999999995  0.84758389999999995  0.84758389999999995  0.84758389999999995  0.84758389999999995  0.84758389999999995  0.84758389999999995  0.84758389999999995  0.84758389999999995  0.84758389999999995
     0.84758389999999995  0.84758389999999995  0.84758389999999995  0.84758389999999995  0.84758389999999995  0.84758389999999995  0.84758389999999995  0.84758389999999995  0.84758389999999995  0.84758389999999995
     0.84758389999999995  0.84758389999999995  0.84758389999999995  0.84758389999999995  0.84758389999999995  0.84758389999999995  0.84758389999999995  0.84758389999999995  0.84758389999999995  0.84758389999999995
     0.84758389999999995  0.84758389999999995  0.84758389999999995  0.84758389999999995  0.84758389999999995  0.84758389999999995  0.84758389999999995  0.84758389999999995  0.84758389999999995  0.84758389999999995
     0.84758389999999995  0.84758389999999995  0.84758389999999995  0.84758389999999995  0.84758389999999995  0.84758389999999995  0.84758389999999995  0.84758389999999995  0.84758389999999995  0.84758389999999995
     0.84758389999999995  0.84758389999999995  0.84758389999999995  0.84758389999999995  0.84758389999999995  0.84758389999999995  0.84758389999999995  0.84758389999999995  0.84758389999999995  0.84758389999999995
     0.84758389999999995  0.84758389999999995  0.84758389999999995  0.84758389999999995  0.84758389999999995  0.84758389999999995  0.84758389999999995  0.84758389999999995  0.84758389999999995  0.84758389999999995
     0.84758389999999995  0.84758389999999995  0.84758389999999995  0.84758389999999995  0.84758389999999995  0.84758389999999995  0.84758389999999995  0.84758389999999995  0.84758389999999995  0.84758389999999995
     0.84758389999999995  0.84758389999999995  0.84758389999999995  0.84758389999999995  0.84758389999999995  0.84758389999999995  0.84758389999999995  0.84758389999999995  0.84758389999999995  0.84758389999999995
     0.84758389999999995  0.84758389999999995  0.84758389999999995  0.84758389999999995  0.84758389999999995  0.84758389999999995  0.84758389999999995  0.84758389999999995  0.84758389999999995  0.84758389999999995
     0.84758389999999995  0.84758389999999995  0.84758389999999995  0.84758389999999995  0.84758389999999995  0.84758389999999995  0.84758389999999995  0.84758389999999995  0.84758389999999995  0.84758389999999995
     0.84758389999999995  0.84758389999999995  0.84758389999999995  0.84758389999999995  0.84758389999999995  0.84758389999999995  0.84758389999999995  0.84758389999999995  0.84758389999999995  0.84758389999999995
     0.84758389999999995  0.84758389999999995  0.84758389999999995  0.84758389999999995  0.84758389999999995  0.84758389999999995  0.84758389999999995  0.84758389999999995  0.84758389999999995  0.84758389999999995
     0.84758389999999995  0.84758389999999995  0.84758389999999995  0.84758389999999995  0.84758389999999995  0.84758389999999995  0.84758389999999995  0.84758389999999995  0.84758389999999995  0.84758389999999995
     0.84758389999999995  0.84758389999999995  0.84758389999999995  0.84758389999999995  0.84758389999999995  0.84758389999999995  0.84758389999999995  0.84758389999999995  0.84758389999999995  0.84758389999999995
     0.84758389999999995  0.84758389999999995  0.84758389999999995  0.84758389999999995  0.84758389999999995  0.84758389999999995  0.84758389999999995  0.84758389999999995  0.84758389999999995  0.84758389999999995
     0.84758389999999995  0.84758389999999995  0.84758389999999995  0.84758389999999995  0.84758389999999995  0.84758389999999995  0.84758389999999995  0.84758389999999995  0.84758389999999995  0.84758389999999995
     0.84758389999999995  0.84758389999999995  0.84758389999999995  0.84758389999999995  0.84758389999999995  0.84758389999999995  0.84758389999999995  0.84758389999999995  0.84758389999999995  0.84758389999999995
     0.84758389999999995  0.84758389999999995  0.84758389999999995  0.84758389999999995  0.84758389999999995  0.84758389999999995  0.84758389999999995  0.84758389999999995  0.84758389999999995  0.84758389999999995
     0.84758389999999995  0.84758389999999995  0.84758389999999995  0.84758389999999995  0.84758389999999995  0.84758389999999995  0.84758389999999995  0.84758389999999995  0.84758389999999995  0.84758389999999995
     0.84758389999999995  0.84758389999999995  0.84758389999999995  0.84758389999999995  0.84758389999999995  0.84758389999999995  0.84758389999999995  0.84758389999999995  0.84758389999999995  0.84758389999999995
     0.84758389999999995  0.84758389999999995  0.84758389999999995  0.84758389999999995  0.84758389999999995  0.84758389999999995  0.84758389999999995  0.84758389999999995  0.84758389999999995  0.84758389999999995
     0.84758389999999995  0.84758389999999995  0.84758389999999995  0.84758389999999995  0.84758389999999995  0.84758389999999995  0.84758389999999995  0.84758389999999995  0.84758389999999995  0.84758389999999995
     0.84758389999999995  0.84758389999999995  0.84758389999999995  0.84758389999999995  0.84758389999999995  0.84758389999999995  0.84758389999999995  0.84758389999999995  0.84758389999999995  0.84758389999999995
     0.84758389999999995  0.84758389999999995  0.84758389999999995  0.84758389999999995  0.84758389999999995  0.84758389999999995  0.84758389999999995  0.84758389999999995  0.84758389999999995  0.84758389999999995
     0.84758389999999995  0.84758389999999995  0.84758389999999995  0.84758389999999995  0.84758389999999995  0.84758389999999995  0.84758389999999995  0.84758389999999995  0.84758389999999995  0.84758389999999995
     0.84758389999999995  0.84758389999999995  0.84758389999999995  0.84758389999999995  0.84758389999999995  0.84758389999999995  0.84758389999999995  0.84758389999999995  0.84758389999999995  0.84758389999999995
     0.84758389999999995  0.84758389999999995  0.84758389999999995  0.84758389999999995  0.84758389999999995  0.84758389999999995  0.84758389999999995  0.84758389999999995  0.84758389999999995  0.84758389999999995
     0.84758389999999995  0.84758389999999995  0.84758389999999995  0.84758389999999995  0.84758389999999995  0.84758389999999995  0.84758389999999995  0.84758389999999995  0.84758389999999995  0.84758389999999995
     0.84758389999999995  0.84758389999999995  0.84758389999999995  0.84758389999999995  0.84758389999999995  0.84758389999999995  0.84758389999999995  0.84758389999999995  0.84758389999999995  0.84758389999999995
     0.84758389999999995  0.84758389999999995  0.84758389999999995  0.84758389999999995  0.84758389999999995  0.84758389999999995  0.84758389999999995  0.84758389999999995  0.84758389999999995  0.84758389999999995
     0.84758389999999995  0.84758389999999995  0.84758389999999995  0.84758389999999995  0.84758389999999995  0.84758389999999995  0.84758389999999995  0.84758389999999995  0.84758389999999995  0.84758389999999995
     0.84758389999999995  0.84758389999999995  0.84758389999999995  0.84758389999999995  0.84758389999999995  0.84758389999999995  0.84758389999999995  0.84758389999999995  0.84758389999999995  0.84758389999999995
     0.84758389999999995  0.84758389999999995  0.84758389999999995  0.84758389999999995  0.84758389999999995  0.84758389999999995  0.84758389999999995  0.84758389999999995  0.84758389999999995  0.84758389999999995
     0.84758389999999995  0.84758389999999995  0.84758389999999995  0.84758389999999995  0.84758389999999995  0.84758389999999995  0.84758389999999995  0.84758389999999995  0.84758389999999995  0.84758389999999995
     0.84758389999999995  0.84758389999999995  0.84758389999999995  0.84758389999999995  0.84758389999999995  0.84758389999999995  0.84758389999999995  0.84758389999999995  0.84758389999999995  0.84758389999999995
     0.84758389999999995  0.84758389999999995  0.84758389999999995  0.84758389999999995  0.84758389999999995  0.84758389999999995  0.84758389999999995  0.84758389999999995  0.84758389999999995  0.84758389999999995
     0.84758389999999995  0.84758389999999995  0.84758389999999995  0.84758389999999995  0.84758389999999995  0.84758389999999995  0.84758389999999995  0.84758389999999995  0.84758389999999995  0.84758389999999995
     0.84758389999999995  0.84758389999999995  0.84758389999999995  0.84758389999999995  0.84758389999999995  0.84758389999999995  0.84758389999999995  0.84758389999999995  0.84758389999999995  0.84758389999999995
     0.84758389999999995  0.84758389999999995  0.84758389999999995  0.84758389999999995  0.84758389999999995  0.84758389999999995  0.84758389999999995  0.84758389999999995  0.84758389999999995  0.84758389999999995
     0.84758389999999995  0.84758389999999995  0.84758389999999995  0.84758389999999995  0.84758389999999995  0.84758389999999995  0.84758389999999995  0.84758389999999995  0.84758389999999995  0.84758389999999995
     0.84758389999999995  0.84758389999999995  0.84758389999999995  0.84758389999999995  0.84758389999999995  0.84758389999999995  0.84758389999999995  0.84758389999999995  0.84758389999999995  0.84758389999999995
     0.84758389999999995  0.84758389999999995  0.84758389999999995  0.84758389999999995  0.84758389999999995  0.84758389999999995  0.84758389999999995  0.84758389999999995  0.84758389999999995  0.84758389999999995
     0.84758389999999995  0.84758389999999995  0.84758389999999995  0.84758389999999995  0.84758389999999995  0.84758389999999995  0.84758389999999995  0.84758389999999995  0.84758389999999995  0.84758389999999995
     0.84758389999999995  0.84758389999999995  0.84758389999999995  0.84758389999999995  0.84758389999999995  0.84758389999999995  0.84758389999999995  0.84758389999999995  0.84758389999999995  0.84758389999999995
     0.84758389999999995  0.84758389999999995  0.84758389999999995  0.84758389999999995  0.84758389999999995  0.84758389999999995  0.84758389999999995  0.84758389999999995  0.84758389999999995  0.84758389999999995
     0.84758389999999995  0.84758389999999995  0.84758389999999995  0.84758389999999995  0.84758389999999995  0.84758389999999995  0.84758389999999995  0.84758389999999995  0.84758389999999995  0.84758389999999995
     0.84758389999999995  0.84758389999999995  0.84758389999999995  0.84758389999999995  0.84758389999999995  0.84758389999999995  0.84758389999999995  0.84758389999999995  0.84758389999999995  0.84758389999999995
     0.84758389999999995  0.84758389999999995  0.84758389999999995  0.84758389999999995  0.84758389999999995  0.84758389999999995  0.84758389999999995  0.84758389999999995  0.84758389999999995  0.84758389999999995
     0.84758389999999995  0.84758389999999995  0.84758389999999995  0.84758389999999995  0.84758389999999995  0.84758389999999995  0.84758389999999995  0.84758389999999995  0.84758389999999995  0.84758389999999995