# LPF for MODFLOW, generated by Flopy.
        53    -1E+30         0  
         1
         1
         1
         0
         0
CONSTANT    1.000000E+01                           #hk Layer 1                    
CONSTANT    1.000000E+01                           #vka Layer 1                   
