# Discretization file for MODFLOW-2000, generated by Flopy.
         1       775       751         3         4         2
  0
 Constant       25.6 DELR(NCOL)
 Constant       25.6 DELC(NROW)
 Constant        0.0 TOP OF SYSTEM
 Constant       -100 BOTTOM OF LAYER
      1.000000             1  1.000000 SS
   1000.000000            10  1.500000 TR
      1.000000             1  1.000000 SS
