#Valley aquifer with 2 sand layers separated by silt.  Stress period 1 is natur
# conditions.  Stress period 2 adds wells.
begin options
end options

BEGIN GRIDDATA
  strt LAYERED
    INTERNAL  FACTOR               1 IPRN  -1 #strt Layer 1                  
   5.492000E+01   5.548000E+01   5.605000E+01   5.662000E+01   5.719000E+01   5.776000E+01   5.833000E+01   5.890000E+01   5.948000E+01   6.006000E+01   6.064000E+01   6.122000E+01   6.180000E+01   6.238000E+01   6.296000E+01   6.354000E+01   6.413000E+01   6.471000E+01   6.530000E+01   6.589000E+01   6.647000E+01   6.706000E+01   6.765000E+01   6.824000E+01   6.882000E+01   6.941000E+01   7.000000E+01   7.059000E+01   7.118000E+01   7.176000E+01   7.235000E+01   7.294000E+01   7.353000E+01   7.411000E+01   7.470000E+01   7.529000E+01   7.587000E+01   7.646000E+01   7.704000E+01   7.762000E+01   7.820000E+01   7.878000E+01   7.936000E+01   7.994000E+01   8.052000E+01   8.110000E+01   8.167000E+01   8.224000E+01   8.281000E+01   8.338000E+01   8.395000E+01   8.452000E+01   8.508000E+01   8.565000E+01   8.621000E+01   8.677000E+01   8.732000E+01   8.788000E+01   8.843000E+01   8.898000E+01   8.953000E+01   9.008000E+01   9.062000E+01   9.116000E+01   9.170000E+01   9.223000E+01   9.277000E+01   9.330000E+01   9.382000E+01   9.435000E+01   9.487000E+01   9.539000E+01   9.590000E+01   9.641000E+01   9.692000E+01   9.742000E+01   9.793000E+01   9.842000E+01   9.892000E+01   9.941000E+01
   5.593000E+01   5.646000E+01   5.698000E+01   5.748000E+01   5.797000E+01   5.846000E+01   5.894000E+01   5.941000E+01   5.988000E+01   6.036000E+01   6.084000E+01   6.133000E+01   6.183000E+01   6.234000E+01   6.287000E+01   6.341000E+01   6.397000E+01   6.454000E+01   6.514000E+01   6.574000E+01   6.636000E+01   6.699000E+01   6.763000E+01   6.827000E+01   6.892000E+01   6.956000E+01   7.020000E+01   7.083000E+01   7.145000E+01   7.205000E+01   7.264000E+01   7.322000E+01   7.378000E+01   7.432000E+01   7.485000E+01   7.537000E+01   7.587000E+01   7.636000E+01   7.684000E+01   7.732000E+01   7.780000E+01   7.828000E+01   7.877000E+01   7.926000E+01   7.976000E+01   8.028000E+01   8.080000E+01   8.135000E+01   8.190000E+01   8.247000E+01   8.306000E+01   8.365000E+01   8.426000E+01   8.487000E+01   8.549000E+01   8.610000E+01   8.672000E+01   8.732000E+01   8.792000E+01   8.851000E+01   8.908000E+01   8.964000E+01   9.018000E+01   9.070000E+01   9.120000E+01   9.169000E+01   9.216000E+01   9.261000E+01   9.305000E+01   9.348000E+01   9.390000E+01   9.432000E+01   9.473000E+01   9.515000E+01   9.557000E+01   9.600000E+01   9.644000E+01   9.689000E+01   9.735000E+01   9.782000E+01
   5.698000E+01   5.747000E+01   5.794000E+01   5.838000E+01   5.880000E+01   5.919000E+01   5.957000E+01   5.995000E+01   6.031000E+01   6.069000E+01   6.107000E+01   6.146000E+01   6.188000E+01   6.232000E+01   6.279000E+01   6.329000E+01   6.382000E+01   6.439000E+01   6.499000E+01   6.561000E+01   6.626000E+01   6.693000E+01   6.762000E+01   6.832000E+01   6.902000E+01   6.971000E+01   7.039000E+01   7.106000E+01   7.171000E+01   7.234000E+01   7.293000E+01   7.349000E+01   7.402000E+01   7.452000E+01   7.499000E+01   7.543000E+01   7.585000E+01   7.624000E+01   7.663000E+01   7.700000E+01   7.738000E+01   7.776000E+01   7.814000E+01   7.855000E+01   7.898000E+01   7.943000E+01   7.991000E+01   8.042000E+01   8.096000E+01   8.153000E+01   8.213000E+01   8.275000E+01   8.339000E+01   8.405000E+01   8.472000E+01   8.539000E+01   8.606000E+01   8.672000E+01   8.736000E+01   8.798000E+01   8.858000E+01   8.915000E+01   8.968000E+01   9.019000E+01   9.065000E+01   9.109000E+01   9.149000E+01   9.186000E+01   9.222000E+01   9.255000E+01   9.287000E+01   9.319000E+01   9.350000E+01   9.382000E+01   9.416000E+01   9.451000E+01   9.488000E+01   9.528000E+01   9.570000E+01   9.615000E+01
   5.806000E+01   5.853000E+01   5.894000E+01   5.932000E+01   5.965000E+01   5.996000E+01   6.024000E+01   6.051000E+01   6.077000E+01   6.104000E+01   6.132000E+01   6.162000E+01   6.195000E+01   6.232000E+01   6.273000E+01   6.319000E+01   6.370000E+01   6.425000E+01   6.485000E+01   6.549000E+01   6.617000E+01   6.688000E+01   6.762000E+01   6.836000E+01   6.912000E+01   6.986000E+01   7.059000E+01   7.130000E+01   7.197000E+01   7.261000E+01   7.321000E+01   7.375000E+01   7.426000E+01   7.471000E+01   7.511000E+01   7.548000E+01   7.581000E+01   7.611000E+01   7.639000E+01   7.666000E+01   7.693000E+01   7.721000E+01   7.750000E+01   7.782000E+01   7.817000E+01   7.855000E+01   7.898000E+01   7.946000E+01   7.998000E+01   8.055000E+01   8.116000E+01   8.181000E+01   8.249000E+01   8.319000E+01   8.391000E+01   8.464000E+01   8.536000E+01   8.607000E+01   8.675000E+01   8.741000E+01   8.803000E+01   8.861000E+01   8.914000E+01   8.962000E+01   9.005000E+01   9.043000E+01   9.076000E+01   9.106000E+01   9.132000E+01   9.156000E+01   9.178000E+01   9.199000E+01   9.220000E+01   9.243000E+01   9.267000E+01   9.294000E+01   9.325000E+01   9.359000E+01   9.398000E+01   9.441000E+01
   5.919000E+01   5.961000E+01   5.997000E+01   6.028000E+01   6.054000E+01   6.075000E+01   6.094000E+01   6.110000E+01   6.126000E+01   6.142000E+01   6.159000E+01   6.180000E+01   6.205000E+01   6.234000E+01   6.269000E+01   6.311000E+01   6.358000E+01   6.412000E+01   6.473000E+01   6.539000E+01   6.609000E+01   6.684000E+01   6.762000E+01   6.842000E+01   6.922000E+01   7.001000E+01   7.079000E+01   7.153000E+01   7.223000E+01   7.288000E+01   7.348000E+01   7.401000E+01   7.448000E+01   7.488000E+01   7.523000E+01   7.552000E+01   7.576000E+01   7.597000E+01   7.614000E+01   7.631000E+01   7.647000E+01   7.664000E+01   7.683000E+01   7.706000E+01   7.733000E+01   7.765000E+01   7.803000E+01   7.848000E+01   7.898000E+01   7.954000E+01   8.016000E+01   8.084000E+01   8.155000E+01   8.230000E+01   8.307000E+01   8.384000E+01   8.462000E+01   8.537000E+01   8.610000E+01   8.679000E+01   8.743000E+01   8.801000E+01   8.854000E+01   8.899000E+01   8.938000E+01   8.971000E+01   8.998000E+01   9.019000E+01   9.037000E+01   9.051000E+01   9.062000E+01   9.073000E+01   9.084000E+01   9.097000E+01   9.112000E+01   9.131000E+01   9.155000E+01   9.184000E+01   9.220000E+01   9.261000E+01
   6.034000E+01   6.073000E+01   6.103000E+01   6.127000E+01   6.145000E+01   6.157000E+01   6.166000E+01   6.171000E+01   6.176000E+01   6.182000E+01   6.189000E+01   6.200000E+01   6.216000E+01   6.238000E+01   6.268000E+01   6.304000E+01   6.349000E+01   6.401000E+01   6.462000E+01   6.529000E+01   6.602000E+01   6.681000E+01   6.763000E+01   6.847000E+01   6.932000E+01   7.016000E+01   7.098000E+01   7.176000E+01   7.249000E+01   7.315000E+01   7.374000E+01   7.425000E+01   7.469000E+01   7.505000E+01   7.533000E+01   7.554000E+01   7.569000E+01   7.580000E+01   7.588000E+01   7.593000E+01   7.599000E+01   7.605000E+01   7.615000E+01   7.628000E+01   7.648000E+01   7.673000E+01   7.706000E+01   7.746000E+01   7.795000E+01   7.851000E+01   7.914000E+01   7.983000E+01   8.058000E+01   8.137000E+01   8.218000E+01   8.301000E+01   8.383000E+01   8.464000E+01   8.541000E+01   8.613000E+01   8.678000E+01   8.737000E+01   8.789000E+01   8.832000E+01   8.867000E+01   8.894000E+01   8.914000E+01   8.928000E+01   8.936000E+01   8.940000E+01   8.941000E+01   8.941000E+01   8.942000E+01   8.945000E+01   8.951000E+01   8.963000E+01   8.980000E+01   9.003000E+01   9.034000E+01   9.073000E+01
   6.152000E+01   6.187000E+01   6.212000E+01   6.229000E+01   6.239000E+01   6.242000E+01   6.240000E+01   6.235000E+01   6.229000E+01   6.224000E+01   6.221000E+01   6.223000E+01   6.230000E+01   6.244000E+01   6.267000E+01   6.299000E+01   6.341000E+01   6.392000E+01   6.452000E+01   6.520000E+01   6.596000E+01   6.678000E+01   6.764000E+01   6.853000E+01   6.943000E+01   7.032000E+01   7.117000E+01   7.198000E+01   7.273000E+01   7.341000E+01   7.399000E+01   7.449000E+01   7.489000E+01   7.520000E+01   7.541000E+01   7.555000E+01   7.561000E+01   7.562000E+01   7.559000E+01   7.554000E+01   7.549000E+01   7.545000E+01   7.544000E+01   7.549000E+01   7.560000E+01   7.579000E+01   7.606000E+01   7.643000E+01   7.689000E+01   7.744000E+01   7.808000E+01   7.880000E+01   7.958000E+01   8.041000E+01   8.127000E+01   8.214000E+01   8.301000E+01   8.386000E+01   8.467000E+01   8.542000E+01   8.609000E+01   8.669000E+01   8.719000E+01   8.760000E+01   8.791000E+01   8.812000E+01   8.825000E+01   8.831000E+01   8.830000E+01   8.824000E+01   8.815000E+01   8.804000E+01   8.795000E+01   8.788000E+01   8.785000E+01   8.788000E+01   8.798000E+01   8.816000E+01   8.844000E+01   8.880000E+01
   6.273000E+01   6.304000E+01   6.324000E+01   6.333000E+01   6.335000E+01   6.328000E+01   6.317000E+01   6.301000E+01   6.284000E+01   6.268000E+01   6.255000E+01   6.247000E+01   6.245000E+01   6.252000E+01   6.269000E+01   6.296000E+01   6.334000E+01   6.384000E+01   6.443000E+01   6.513000E+01   6.591000E+01   6.676000E+01   6.766000E+01   6.860000E+01   6.954000E+01   7.047000E+01   7.137000E+01   7.221000E+01   7.298000E+01   7.366000E+01   7.424000E+01   7.471000E+01   7.508000E+01   7.534000E+01   7.549000E+01   7.554000E+01   7.552000E+01   7.543000E+01   7.530000E+01   7.514000E+01   7.497000E+01   7.483000E+01   7.472000E+01   7.468000E+01   7.471000E+01   7.483000E+01   7.505000E+01   7.538000E+01   7.581000E+01   7.636000E+01   7.700000E+01   7.774000E+01   7.855000E+01   7.941000E+01   8.032000E+01   8.124000E+01   8.216000E+01   8.305000E+01   8.389000E+01   8.467000E+01   8.536000E+01   8.596000E+01   8.645000E+01   8.683000E+01   8.710000E+01   8.726000E+01   8.732000E+01   8.729000E+01   8.718000E+01   8.703000E+01   8.683000E+01   8.662000E+01   8.643000E+01   8.626000E+01   8.614000E+01   8.608000E+01   8.612000E+01   8.624000E+01   8.647000E+01   8.681000E+01
   6.397000E+01   6.423000E+01   6.437000E+01   6.440000E+01   6.433000E+01   6.417000E+01   6.395000E+01   6.369000E+01   6.342000E+01   6.315000E+01   6.291000E+01   6.273000E+01   6.263000E+01   6.262000E+01   6.272000E+01   6.295000E+01   6.329000E+01   6.377000E+01   6.436000E+01   6.507000E+01   6.587000E+01   6.675000E+01   6.769000E+01   6.866000E+01   6.965000E+01   7.062000E+01   7.155000E+01   7.242000E+01   7.321000E+01   7.390000E+01   7.448000E+01   7.493000E+01   7.526000E+01   7.546000E+01   7.555000E+01   7.553000E+01   7.541000E+01   7.522000E+01   7.498000E+01   7.472000E+01   7.444000E+01   7.419000E+01   7.399000E+01   7.385000E+01   7.380000E+01   7.385000E+01   7.402000E+01   7.430000E+01   7.472000E+01   7.525000E+01   7.590000E+01   7.665000E+01   7.749000E+01   7.839000E+01   7.934000E+01   8.031000E+01   8.127000E+01   8.220000E+01   8.308000E+01   8.388000E+01   8.459000E+01   8.519000E+01   8.566000E+01   8.602000E+01   8.624000E+01   8.634000E+01   8.633000E+01   8.622000E+01   8.603000E+01   8.577000E+01   8.547000E+01   8.516000E+01   8.485000E+01   8.459000E+01   8.437000E+01   8.424000E+01   8.420000E+01   8.427000E+01   8.446000E+01   8.477000E+01
   6.522000E+01   6.544000E+01   6.552000E+01   6.548000E+01   6.533000E+01   6.508000E+01   6.476000E+01   6.439000E+01   6.400000E+01   6.363000E+01   6.329000E+01   6.301000E+01   6.282000E+01   6.273000E+01   6.277000E+01   6.295000E+01   6.326000E+01   6.371000E+01   6.430000E+01   6.501000E+01   6.583000E+01   6.674000E+01   6.772000E+01   6.874000E+01   6.976000E+01   7.077000E+01   7.174000E+01   7.264000E+01   7.344000E+01   7.414000E+01   7.470000E+01   7.514000E+01   7.543000E+01   7.558000E+01   7.560000E+01   7.550000E+01   7.529000E+01   7.501000E+01   7.466000E+01   7.428000E+01   7.390000E+01   7.354000E+01   7.324000E+01   7.301000E+01   7.287000E+01   7.286000E+01   7.297000E+01   7.322000E+01   7.360000E+01   7.413000E+01   7.478000E+01   7.555000E+01   7.641000E+01   7.735000E+01   7.834000E+01   7.935000E+01   8.035000E+01   8.132000E+01   8.223000E+01   8.306000E+01   8.378000E+01   8.438000E+01   8.484000E+01   8.516000E+01   8.535000E+01   8.539000E+01   8.531000E+01   8.511000E+01   8.483000E+01   8.447000E+01   8.407000E+01   8.365000E+01   8.324000E+01   8.287000E+01   8.257000E+01   8.235000E+01   8.225000E+01   8.226000E+01   8.241000E+01   8.269000E+01
   6.649000E+01   6.667000E+01   6.669000E+01   6.658000E+01   6.634000E+01   6.600000E+01   6.558000E+01   6.510000E+01   6.461000E+01   6.412000E+01   6.368000E+01   6.331000E+01   6.303000E+01   6.286000E+01   6.284000E+01   6.296000E+01   6.324000E+01   6.367000E+01   6.425000E+01   6.497000E+01   6.581000E+01   6.675000E+01   6.776000E+01   6.881000E+01   6.988000E+01   7.092000E+01   7.192000E+01   7.285000E+01   7.367000E+01   7.437000E+01   7.492000E+01   7.533000E+01   7.558000E+01   7.568000E+01   7.564000E+01   7.545000E+01   7.516000E+01   7.477000E+01   7.432000E+01   7.384000E+01   7.335000E+01   7.288000E+01   7.248000E+01   7.215000E+01   7.194000E+01   7.185000E+01   7.191000E+01   7.212000E+01   7.248000E+01   7.299000E+01   7.364000E+01   7.443000E+01   7.531000E+01   7.629000E+01   7.731000E+01   7.836000E+01   7.941000E+01   8.041000E+01   8.135000E+01   8.220000E+01   8.293000E+01   8.353000E+01   8.398000E+01   8.427000E+01   8.441000E+01   8.440000E+01   8.424000E+01   8.397000E+01   8.359000E+01   8.313000E+01   8.263000E+01   8.210000E+01   8.159000E+01   8.112000E+01   8.073000E+01   8.043000E+01   8.025000E+01   8.021000E+01   8.031000E+01   8.057000E+01
   6.777000E+01   6.791000E+01   6.787000E+01   6.769000E+01   6.737000E+01   6.693000E+01   6.641000E+01   6.583000E+01   6.523000E+01   6.464000E+01   6.409000E+01   6.362000E+01   6.325000E+01   6.301000E+01   6.292000E+01   6.299000E+01   6.323000E+01   6.364000E+01   6.422000E+01   6.494000E+01   6.579000E+01   6.676000E+01   6.780000E+01   6.889000E+01   6.999000E+01   7.107000E+01   7.210000E+01   7.305000E+01   7.389000E+01   7.459000E+01   7.513000E+01   7.552000E+01   7.573000E+01   7.578000E+01   7.566000E+01   7.540000E+01   7.502000E+01   7.453000E+01   7.398000E+01   7.338000E+01   7.278000E+01   7.222000E+01   7.171000E+01   7.129000E+01   7.100000E+01   7.084000E+01   7.084000E+01   7.100000E+01   7.134000E+01   7.184000E+01   7.249000E+01   7.329000E+01   7.420000E+01   7.520000E+01   7.626000E+01   7.735000E+01   7.843000E+01   7.948000E+01   8.045000E+01   8.131000E+01   8.206000E+01   8.265000E+01   8.308000E+01   8.335000E+01   8.344000E+01   8.337000E+01   8.314000E+01   8.278000E+01   8.231000E+01   8.176000E+01   8.115000E+01   8.052000E+01   7.991000E+01   7.934000E+01   7.885000E+01   7.847000E+01   7.822000E+01   7.812000E+01   7.819000E+01   7.842000E+01
   6.907000E+01   6.916000E+01   6.907000E+01   6.881000E+01   6.841000E+01   6.788000E+01   6.726000E+01   6.657000E+01   6.586000E+01   6.516000E+01   6.451000E+01   6.394000E+01   6.349000E+01   6.317000E+01   6.302000E+01   6.304000E+01   6.324000E+01   6.363000E+01   6.419000E+01   6.492000E+01   6.579000E+01   6.677000E+01   6.784000E+01   6.897000E+01   7.011000E+01   7.122000E+01   7.228000E+01   7.325000E+01   7.410000E+01   7.480000E+01   7.533000E+01   7.569000E+01   7.587000E+01   7.586000E+01   7.567000E+01   7.534000E+01   7.486000E+01   7.428000E+01   7.362000E+01   7.292000E+01   7.221000E+01   7.154000E+01   7.093000E+01   7.042000E+01   7.005000E+01   6.982000E+01   6.976000E+01   6.988000E+01   7.019000E+01   7.068000E+01   7.133000E+01   7.214000E+01   7.307000E+01   7.410000E+01   7.520000E+01   7.632000E+01   7.744000E+01   7.852000E+01   7.951000E+01   8.040000E+01   8.115000E+01   8.174000E+01   8.216000E+01   8.239000E+01   8.244000E+01   8.231000E+01   8.201000E+01   8.157000E+01   8.101000E+01   8.035000E+01   7.964000E+01   7.891000E+01   7.820000E+01   7.753000E+01   7.695000E+01   7.649000E+01   7.617000E+01   7.601000E+01   7.603000E+01   7.623000E+01
   7.037000E+01   7.042000E+01   7.027000E+01   6.994000E+01   6.945000E+01   6.883000E+01   6.811000E+01   6.732000E+01   6.651000E+01   6.570000E+01   6.495000E+01   6.428000E+01   6.374000E+01   6.335000E+01   6.313000E+01   6.310000E+01   6.326000E+01   6.363000E+01   6.418000E+01   6.491000E+01   6.579000E+01   6.680000E+01   6.790000E+01   6.905000E+01   7.022000E+01   7.137000E+01   7.246000E+01   7.344000E+01   7.430000E+01   7.500000E+01   7.553000E+01   7.586000E+01   7.599000E+01   7.593000E+01   7.568000E+01   7.526000E+01   7.469000E+01   7.401000E+01   7.325000E+01   7.244000E+01   7.163000E+01   7.085000E+01   7.015000E+01   6.955000E+01   6.909000E+01   6.879000E+01   6.868000E+01   6.876000E+01   6.904000E+01   6.951000E+01   7.016000E+01   7.098000E+01   7.193000E+01   7.299000E+01   7.411000E+01   7.527000E+01   7.643000E+01   7.753000E+01   7.856000E+01   7.946000E+01   8.022000E+01   8.080000E+01   8.120000E+01   8.140000E+01   8.141000E+01   8.122000E+01   8.085000E+01   8.033000E+01   7.967000E+01   7.892000E+01   7.811000E+01   7.728000E+01   7.646000E+01   7.570000E+01   7.503000E+01   7.449000E+01   7.410000E+01   7.388000E+01   7.385000E+01   7.403000E+01
   7.168000E+01   7.168000E+01   7.147000E+01   7.107000E+01   7.051000E+01   6.979000E+01   6.897000E+01   6.808000E+01   6.716000E+01   6.625000E+01   6.540000E+01   6.464000E+01   6.401000E+01   6.354000E+01   6.325000E+01   6.317000E+01   6.330000E+01   6.363000E+01   6.418000E+01   6.491000E+01   6.580000E+01   6.682000E+01   6.795000E+01   6.913000E+01   7.034000E+01   7.151000E+01   7.262000E+01   7.363000E+01   7.450000E+01   7.520000E+01   7.571000E+01   7.601000E+01   7.610000E+01   7.599000E+01   7.567000E+01   7.517000E+01   7.452000E+01   7.374000E+01   7.288000E+01   7.197000E+01   7.105000E+01   7.017000E+01   6.936000E+01   6.867000E+01   6.813000E+01   6.777000E+01   6.760000E+01   6.763000E+01   6.788000E+01   6.834000E+01   6.899000E+01   6.981000E+01   7.078000E+01   7.186000E+01   7.302000E+01   7.421000E+01   7.540000E+01   7.653000E+01   7.758000E+01   7.850000E+01   7.926000E+01   7.984000E+01   8.022000E+01   8.039000E+01   8.035000E+01   8.010000E+01   7.966000E+01   7.906000E+01   7.831000E+01   7.747000E+01   7.655000E+01   7.562000E+01   7.470000E+01   7.384000E+01   7.309000E+01   7.246000E+01   7.200000E+01   7.173000E+01   7.166000E+01   7.180000E+01
   7.299000E+01   7.294000E+01   7.268000E+01   7.221000E+01   7.156000E+01   7.076000E+01   6.984000E+01   6.885000E+01   6.782000E+01   6.681000E+01   6.585000E+01   6.500000E+01   6.428000E+01   6.374000E+01   6.339000E+01   6.325000E+01   6.334000E+01   6.366000E+01   6.418000E+01   6.491000E+01   6.582000E+01   6.686000E+01   6.801000E+01   6.922000E+01   7.045000E+01   7.166000E+01   7.279000E+01   7.381000E+01   7.469000E+01   7.538000E+01   7.588000E+01   7.616000E+01   7.621000E+01   7.604000E+01   7.565000E+01   7.508000E+01   7.434000E+01   7.346000E+01   7.250000E+01   7.148000E+01   7.046000E+01   6.948000E+01   6.858000E+01   6.780000E+01   6.718000E+01   6.674000E+01   6.651000E+01   6.651000E+01   6.673000E+01   6.716000E+01   6.781000E+01   6.864000E+01   6.962000E+01   7.073000E+01   7.192000E+01   7.314000E+01   7.435000E+01   7.552000E+01   7.659000E+01   7.752000E+01   7.829000E+01   7.886000E+01   7.922000E+01   7.936000E+01   7.927000E+01   7.896000E+01   7.846000E+01   7.777000E+01   7.694000E+01   7.599000E+01   7.498000E+01   7.395000E+01   7.293000E+01   7.198000E+01   7.113000E+01   7.043000E+01   6.990000E+01   6.957000E+01   6.946000E+01   6.957000E+01
   7.430000E+01   7.421000E+01   7.389000E+01   7.335000E+01   7.261000E+01   7.172000E+01   7.071000E+01   6.961000E+01   6.849000E+01   6.737000E+01   6.632000E+01   6.537000E+01   6.457000E+01   6.395000E+01   6.354000E+01   6.335000E+01   6.340000E+01   6.369000E+01   6.420000E+01   6.493000E+01   6.584000E+01   6.690000E+01   6.807000E+01   6.931000E+01   7.057000E+01   7.180000E+01   7.295000E+01   7.399000E+01   7.487000E+01   7.556000E+01   7.604000E+01   7.629000E+01   7.630000E+01   7.607000E+01   7.562000E+01   7.497000E+01   7.414000E+01   7.318000E+01   7.211000E+01   7.099000E+01   6.987000E+01   6.878000E+01   6.779000E+01   6.692000E+01   6.622000E+01   6.572000E+01   6.543000E+01   6.538000E+01   6.557000E+01   6.599000E+01   6.663000E+01   6.747000E+01   6.847000E+01   6.959000E+01   7.081000E+01   7.206000E+01   7.330000E+01   7.449000E+01   7.558000E+01   7.652000E+01   7.729000E+01   7.786000E+01   7.820000E+01   7.830000E+01   7.817000E+01   7.781000E+01   7.723000E+01   7.646000E+01   7.554000E+01   7.451000E+01   7.340000E+01   7.226000E+01   7.115000E+01   7.010000E+01   6.917000E+01   6.839000E+01   6.779000E+01   6.741000E+01   6.725000E+01   6.733000E+01
   7.560000E+01   7.547000E+01   7.509000E+01   7.448000E+01   7.367000E+01   7.269000E+01   7.158000E+01   7.039000E+01   6.916000E+01   6.794000E+01   6.679000E+01   6.575000E+01   6.487000E+01   6.417000E+01   6.370000E+01   6.346000E+01   6.347000E+01   6.373000E+01   6.423000E+01   6.495000E+01   6.587000E+01   6.695000E+01   6.814000E+01   6.940000E+01   7.068000E+01   7.193000E+01   7.311000E+01   7.416000E+01   7.504000E+01   7.573000E+01   7.619000E+01   7.641000E+01   7.638000E+01   7.610000E+01   7.559000E+01   7.486000E+01   7.394000E+01   7.288000E+01   7.172000E+01   7.050000E+01   6.928000E+01   6.809000E+01   6.700000E+01   6.605000E+01   6.527000E+01   6.470000E+01   6.436000E+01   6.427000E+01   6.442000E+01   6.483000E+01   6.546000E+01   6.630000E+01   6.731000E+01   6.846000E+01   6.969000E+01   7.097000E+01   7.224000E+01   7.345000E+01   7.456000E+01   7.551000E+01   7.629000E+01   7.684000E+01   7.716000E+01   7.723000E+01   7.705000E+01   7.663000E+01   7.599000E+01   7.514000E+01   7.414000E+01   7.301000E+01   7.180000E+01   7.057000E+01   6.936000E+01   6.823000E+01   6.721000E+01   6.635000E+01   6.568000E+01   6.524000E+01   6.504000E+01   6.509000E+01
   7.690000E+01   7.672000E+01   7.628000E+01   7.560000E+01   7.471000E+01   7.365000E+01   7.245000E+01   7.116000E+01   6.983000E+01   6.852000E+01   6.727000E+01   6.614000E+01   6.518000E+01   6.441000E+01   6.387000E+01   6.358000E+01   6.355000E+01   6.378000E+01   6.427000E+01   6.499000E+01   6.591000E+01   6.700000E+01   6.821000E+01   6.949000E+01   7.079000E+01   7.207000E+01   7.326000E+01   7.432000E+01   7.521000E+01   7.589000E+01   7.633000E+01   7.652000E+01   7.645000E+01   7.612000E+01   7.554000E+01   7.474000E+01   7.374000E+01   7.259000E+01   7.133000E+01   7.001000E+01   6.868000E+01   6.741000E+01   6.622000E+01   6.518000E+01   6.433000E+01   6.369000E+01   6.329000E+01   6.316000E+01   6.328000E+01   6.367000E+01   6.429000E+01   6.513000E+01   6.616000E+01   6.732000E+01   6.858000E+01   6.988000E+01   7.117000E+01   7.241000E+01   7.353000E+01   7.450000E+01   7.527000E+01   7.581000E+01   7.611000E+01   7.615000E+01   7.593000E+01   7.545000E+01   7.474000E+01   7.381000E+01   7.272000E+01   7.150000E+01   7.021000E+01   6.888000E+01   6.758000E+01   6.635000E+01   6.525000E+01   6.431000E+01   6.358000E+01   6.308000E+01   6.284000E+01   6.286000E+01
   7.818000E+01   7.796000E+01   7.746000E+01   7.672000E+01   7.575000E+01   7.460000E+01   7.331000E+01   7.192000E+01   7.050000E+01   6.909000E+01   6.776000E+01   6.654000E+01   6.549000E+01   6.465000E+01   6.405000E+01   6.371000E+01   6.364000E+01   6.385000E+01   6.432000E+01   6.503000E+01   6.595000E+01   6.705000E+01   6.828000E+01   6.958000E+01   7.090000E+01   7.220000E+01   7.340000E+01   7.448000E+01   7.537000E+01   7.604000E+01   7.647000E+01   7.663000E+01   7.651000E+01   7.613000E+01   7.548000E+01   7.461000E+01   7.353000E+01   7.228000E+01   7.093000E+01   6.952000E+01   6.809000E+01   6.672000E+01   6.545000E+01   6.432000E+01   6.339000E+01   6.269000E+01   6.224000E+01   6.206000E+01   6.215000E+01   6.252000E+01   6.313000E+01   6.398000E+01   6.501000E+01   6.619000E+01   6.747000E+01   6.879000E+01   7.011000E+01   7.136000E+01   7.250000E+01   7.347000E+01   7.424000E+01   7.478000E+01   7.505000E+01   7.506000E+01   7.479000E+01   7.426000E+01   7.348000E+01   7.248000E+01   7.131000E+01   7.000000E+01   6.861000E+01   6.719000E+01   6.579000E+01   6.448000E+01   6.329000E+01   6.228000E+01   6.149000E+01   6.094000E+01   6.065000E+01   6.064000E+01
   7.945000E+01   7.918000E+01   7.863000E+01   7.782000E+01   7.678000E+01   7.555000E+01   7.417000E+01   7.269000E+01   7.117000E+01   6.967000E+01   6.824000E+01   6.694000E+01   6.581000E+01   6.490000E+01   6.424000E+01   6.385000E+01   6.374000E+01   6.392000E+01   6.437000E+01   6.508000E+01   6.600000E+01   6.711000E+01   6.835000E+01   6.967000E+01   7.101000E+01   7.232000E+01   7.354000E+01   7.462000E+01   7.552000E+01   7.618000E+01   7.659000E+01   7.672000E+01   7.656000E+01   7.613000E+01   7.542000E+01   7.447000E+01   7.331000E+01   7.198000E+01   7.053000E+01   6.903000E+01   6.751000E+01   6.604000E+01   6.468000E+01   6.348000E+01   6.247000E+01   6.170000E+01   6.120000E+01   6.098000E+01   6.104000E+01   6.138000E+01   6.199000E+01   6.283000E+01   6.387000E+01   6.507000E+01   6.636000E+01   6.771000E+01   6.904000E+01   7.031000E+01   7.146000E+01   7.244000E+01   7.321000E+01   7.374000E+01   7.399000E+01   7.396000E+01   7.365000E+01   7.306000E+01   7.221000E+01   7.114000E+01   6.989000E+01   6.849000E+01   6.701000E+01   6.550000E+01   6.402000E+01   6.262000E+01   6.135000E+01   6.027000E+01   5.941000E+01   5.881000E+01   5.848000E+01   5.843000E+01
   8.070000E+01   8.039000E+01   7.979000E+01   7.891000E+01   7.780000E+01   7.648000E+01   7.502000E+01   7.345000E+01   7.184000E+01   7.024000E+01   6.873000E+01   6.734000E+01   6.614000E+01   6.516000E+01   6.443000E+01   6.400000E+01   6.385000E+01   6.400000E+01   6.444000E+01   6.513000E+01   6.606000E+01   6.718000E+01   6.843000E+01   6.976000E+01   7.112000E+01   7.245000E+01   7.368000E+01   7.477000E+01   7.566000E+01   7.631000E+01   7.670000E+01   7.680000E+01   7.661000E+01   7.612000E+01   7.535000E+01   7.433000E+01   7.309000E+01   7.167000E+01   7.014000E+01   6.854000E+01   6.693000E+01   6.537000E+01   6.393000E+01   6.264000E+01   6.156000E+01   6.073000E+01   6.017000E+01   5.991000E+01   5.994000E+01   6.026000E+01   6.086000E+01   6.170000E+01   6.275000E+01   6.395000E+01   6.527000E+01   6.663000E+01   6.798000E+01   6.927000E+01   7.043000E+01   7.141000E+01   7.218000E+01   7.269000E+01   7.292000E+01   7.286000E+01   7.250000E+01   7.186000E+01   7.095000E+01   6.981000E+01   6.848000E+01   6.700000E+01   6.543000E+01   6.383000E+01   6.226000E+01   6.078000E+01   5.943000E+01   5.828000E+01   5.736000E+01   5.670000E+01   5.633000E+01   5.625000E+01
   8.193000E+01   8.158000E+01   8.092000E+01   7.998000E+01   7.880000E+01   7.741000E+01   7.585000E+01   7.420000E+01   7.250000E+01   7.082000E+01   6.921000E+01   6.775000E+01   6.647000E+01   6.542000E+01   6.464000E+01   6.415000E+01   6.397000E+01   6.409000E+01   6.451000E+01   6.520000E+01   6.612000E+01   6.724000E+01   6.851000E+01   6.985000E+01   7.123000E+01   7.257000E+01   7.381000E+01   7.490000E+01   7.579000E+01   7.643000E+01   7.680000E+01   7.687000E+01   7.664000E+01   7.610000E+01   7.527000E+01   7.418000E+01   7.286000E+01   7.137000E+01   6.974000E+01   6.805000E+01   6.636000E+01   6.471000E+01   6.318000E+01   6.182000E+01   6.067000E+01   5.978000E+01   5.917000E+01   5.886000E+01   5.886000E+01   5.916000E+01   5.975000E+01   6.058000E+01   6.164000E+01   6.285000E+01   6.418000E+01   6.556000E+01   6.693000E+01   6.823000E+01   6.940000E+01   7.039000E+01   7.115000E+01   7.165000E+01   7.186000E+01   7.176000E+01   7.136000E+01   7.066000E+01   6.969000E+01   6.848000E+01   6.707000E+01   6.551000E+01   6.386000E+01   6.218000E+01   6.052000E+01   5.896000E+01   5.754000E+01   5.631000E+01   5.533000E+01   5.462000E+01   5.421000E+01   5.411000E+01
   8.314000E+01   8.274000E+01   8.203000E+01   8.103000E+01   7.978000E+01   7.831000E+01   7.668000E+01   7.494000E+01   7.315000E+01   7.139000E+01   6.970000E+01   6.815000E+01   6.680000E+01   6.569000E+01   6.485000E+01   6.431000E+01   6.409000E+01   6.419000E+01   6.459000E+01   6.527000E+01   6.619000E+01   6.731000E+01   6.859000E+01   6.995000E+01   7.133000E+01   7.268000E+01   7.393000E+01   7.502000E+01   7.591000E+01   7.654000E+01   7.689000E+01   7.693000E+01   7.666000E+01   7.607000E+01   7.518000E+01   7.403000E+01   7.263000E+01   7.106000E+01   6.935000E+01   6.758000E+01   6.579000E+01   6.406000E+01   6.245000E+01   6.101000E+01   5.980000E+01   5.884000E+01   5.818000E+01   5.783000E+01   5.780000E+01   5.808000E+01   5.866000E+01   5.949000E+01   6.054000E+01   6.177000E+01   6.311000E+01   6.450000E+01   6.589000E+01   6.720000E+01   6.837000E+01   6.936000E+01   7.012000E+01   7.061000E+01   7.079000E+01   7.066000E+01   7.022000E+01   6.947000E+01   6.844000E+01   6.716000E+01   6.568000E+01   6.404000E+01   6.231000E+01   6.054000E+01   5.880000E+01   5.716000E+01   5.567000E+01   5.438000E+01   5.334000E+01   5.258000E+01   5.213000E+01   5.199000E+01