# NPF8 input file, prepared by MF5to6 on 3/14/2016 at 12:30:00.

BEGIN Options
  # PERCHED
  # VARIABLECV  DEWATERED
  SAVE_FLOWS
END Options

BEGIN GRIDDATA
  Icelltype LAYERED
    CONSTANT  1
    CONSTANT  0
    CONSTANT  0
  k  LAYERED
    CONSTANT   0.120000000    
    CONSTANT   0.120000000    
    CONSTANT   0.120000000    
  K33  LAYERED
    CONSTANT   0.120000000    
    CONSTANT   0.120000000    
    CONSTANT   0.120000000    
END GRIDDATA
