Begin Options
  Print_Input
  Print_Flows
End Options

Begin Dimensions
  NUMGNC  112
  NUMALPHAJ  2
End Dimensions

Begin GncData
  # left side, child layer 1
  1 3 2  1 1 1  1 2 2  0 0 0   .2500000000000000  .000000000000000
  1 3 2  1 2 1  1 4 2  0 0 0   .2500000000000000  .000000000000000
  1 4 2  1 3 1  1 3 2  0 0 0   .2500000000000000  .000000000000000
  1 4 2  1 4 1  1 5 2  0 0 0   .2500000000000000  .000000000000000
  # right side, child layer 1
  1 3 5  1 1 4  1 2 5  0 0 0   .2500000000000000  .000000000000000
  1 3 5  1 2 4  1 4 5  0 0 0   .2500000000000000  .000000000000000
  1 4 5  1 3 4  1 3 5  0 0 0   .2500000000000000  .000000000000000
  1 4 5  1 4 4  1 5 5  0 0 0   .2500000000000000  .000000000000000
  # back, child layer 1
  1 2 3  1 1 1  1 2 2  0 0 0   .2500000000000000  .000000000000000
  1 2 3  1 1 2  1 2 4  0 0 0   .2500000000000000  .000000000000000
  1 2 4  1 1 3  1 2 3  0 0 0   .2500000000000000  .000000000000000
  1 2 4  1 1 4  1 2 5  0 0 0   .2500000000000000  .000000000000000
  # front, child layer 1
  1 5 3  1 4 1  1 5 2  0 0 0   .2500000000000000  .000000000000000
  1 5 3  1 4 2  1 5 4  0 0 0   .2500000000000000  .000000000000000
  1 5 4  1 4 3  1 5 3  0 0 0   .2500000000000000  .000000000000000
  1 5 4  1 4 4  1 5 5  0 0 0   .2500000000000000  .000000000000000
  # left side, child layer 2
  1 3 2  2 1 1  1 2 2  0 0 0   .2500000000000000  .000000000000000
  1 3 2  2 2 1  1 4 2  0 0 0   .2500000000000000  .000000000000000
  1 4 2  2 3 1  1 3 2  0 0 0   .2500000000000000  .000000000000000
  1 4 2  2 4 1  1 5 2  0 0 0   .2500000000000000  .000000000000000
  # right side, child layer 2
  1 3 5  2 1 4  1 2 5  0 0 0   .2500000000000000  .000000000000000
  1 3 5  2 2 4  1 4 5  0 0 0   .2500000000000000  .000000000000000
  1 4 5  2 3 4  1 3 5  0 0 0   .2500000000000000  .000000000000000
  1 4 5  2 4 4  1 5 5  0 0 0   .2500000000000000  .000000000000000
  # back, child layer 2
  1 2 3  2 1 1  1 2 2  0 0 0   .2500000000000000  .000000000000000
  1 2 3  2 1 2  1 2 4  0 0 0   .2500000000000000  .000000000000000
  1 2 4  2 1 3  1 2 3  0 0 0   .2500000000000000  .000000000000000
  1 2 4  2 1 4  1 2 5  0 0 0   .2500000000000000  .000000000000000
  # front, child layer 2
  1 5 3  2 4 1  1 5 2  0 0 0   .2500000000000000  .000000000000000
  1 5 3  2 4 2  1 5 4  0 0 0   .2500000000000000  .000000000000000
  1 5 4  2 4 3  1 5 3  0 0 0   .2500000000000000  .000000000000000
  1 5 4  2 4 4  1 5 5  0 0 0   .2500000000000000  .000000000000000
  # left side, child layer 3
  1 3 2  3 1 1  1 2 2  2 3 2   .2500000000000000  .4444444444444444
  1 3 2  3 2 1  1 4 2  2 3 2   .2500000000000000  .4444444444444444
  1 4 2  3 3 1  1 3 2  2 4 2   .2500000000000000  .4444444444444444
  1 4 2  3 4 1  1 5 2  2 4 2   .2500000000000000  .4444444444444444
  # right side, child layer 3
  1 3 5  3 1 4  1 2 5  2 3 5   .2500000000000000  .4444444444444444
  1 3 5  3 2 4  1 4 5  2 3 5   .2500000000000000  .4444444444444444
  1 4 5  3 3 4  1 3 5  2 4 5   .2500000000000000  .4444444444444444
  1 4 5  3 4 4  1 5 5  2 4 5   .2500000000000000  .4444444444444444
  # back, child layer 3
  1 2 3  3 1 1  1 2 2  2 2 3   .2500000000000000  .4444444444444444
  1 2 3  3 1 2  1 2 4  2 2 3   .2500000000000000  .4444444444444444
  1 2 4  3 1 3  1 2 3  2 2 4   .2500000000000000  .4444444444444444
  1 2 4  3 1 4  1 2 5  2 2 4   .2500000000000000  .4444444444444444
  # front, child layer 3
  1 5 3  3 4 1  1 5 2  2 5 3   .2500000000000000  .4444444444444444
  1 5 3  3 4 2  1 5 4  2 5 3   .2500000000000000  .4444444444444444
  1 5 4  3 4 3  1 5 3  2 5 4   .2500000000000000  .4444444444444444
  1 5 4  3 4 4  1 5 5  2 5 4   .2500000000000000  .4444444444444444
  # left side, child layer 4
  2 3 2  4 1 1  2 2 2  1 3 2   .2500000000000000  .2222222222222222
  2 3 2  4 2 1  2 4 2  1 3 2   .2500000000000000  .2222222222222222
  2 4 2  4 3 1  2 3 2  1 4 2   .2500000000000000  .2222222222222222
  2 4 2  4 4 1  2 5 2  1 4 2   .2500000000000000  .2222222222222222
  # right side, child layer 4
  2 3 5  4 1 4  2 2 5  1 3 5   .2500000000000000  .2222222222222222
  2 3 5  4 2 4  2 4 5  1 3 5   .2500000000000000  .2222222222222222
  2 4 5  4 3 4  2 3 5  1 4 5   .2500000000000000  .2222222222222222
  2 4 5  4 4 4  2 5 5  1 4 5   .2500000000000000  .2222222222222222
  # back, child layer 4
  2 2 3  4 1 1  2 2 2  1 2 3   .2500000000000000  .2222222222222222
  2 2 3  4 1 2  2 2 4  1 2 3   .2500000000000000  .2222222222222222
  2 2 4  4 1 3  2 2 3  1 2 4   .2500000000000000  .2222222222222222
  2 2 4  4 1 4  2 2 5  1 2 4   .2500000000000000  .2222222222222222
  # front, child layer 4
  2 5 3  4 4 1  2 5 2  1 5 3   .2500000000000000  .2222222222222222
  2 5 3  4 4 2  2 5 4  1 5 3   .2500000000000000  .2222222222222222
  2 5 4  4 4 3  2 5 3  1 5 4   .2500000000000000  .2222222222222222
  2 5 4  4 4 4  2 5 5  1 5 4   .2500000000000000  .2222222222222222
  # left side, child layer 5
  2 3 2  5 1 1  2 2 2  0 0 0   .2500000000000000  .000000000000000
  2 3 2  5 2 1  2 4 2  0 0 0   .2500000000000000  .000000000000000
  2 4 2  5 3 1  2 3 2  0 0 0   .2500000000000000  .000000000000000
  2 4 2  5 4 1  2 5 2  0 0 0   .2500000000000000  .000000000000000
  # right side, child layer 5
  2 3 5  5 1 4  2 2 5  0 0 0   .2500000000000000  .000000000000000
  2 3 5  5 2 4  2 4 5  0 0 0   .2500000000000000  .000000000000000
  2 4 5  5 3 4  2 3 5  0 0 0   .2500000000000000  .000000000000000
  2 4 5  5 4 4  2 5 5  0 0 0   .2500000000000000  .000000000000000
  # back, child layer 5
  2 2 3  5 1 1  2 2 2  0 0 0   .2500000000000000  .000000000000000
  2 2 3  5 1 2  2 2 4  0 0 0   .2500000000000000  .000000000000000
  2 2 4  5 1 3  2 2 3  0 0 0   .2500000000000000  .000000000000000
  2 2 4  5 1 4  2 2 5  0 0 0   .2500000000000000  .000000000000000
  # front, child layer 5
  2 5 3  5 4 1  2 5 2  0 0 0   .2500000000000000  .000000000000000
  2 5 3  5 4 2  2 5 4  0 0 0   .2500000000000000  .000000000000000
  2 5 4  5 4 3  2 5 3  0 0 0   .2500000000000000  .000000000000000
  2 5 4  5 4 4  2 5 5  0 0 0   .2500000000000000  .000000000000000
  # left side, child layer 6
  2 3 2  6 1 1  2 2 2  3 3 2   .2500000000000000  .3333333333333333
  2 3 2  6 2 1  2 4 2  3 3 2   .2500000000000000  .3333333333333333
  2 4 2  6 3 1  2 3 2  3 4 2   .2500000000000000  .3333333333333333
  2 4 2  6 4 1  2 5 2  3 4 2   .2500000000000000  .3333333333333333
  # right side, child layer 6
  2 3 5  6 1 4  2 2 5  3 3 5   .2500000000000000  .3333333333333333
  2 3 5  6 2 4  2 4 5  3 3 5   .2500000000000000  .3333333333333333
  2 4 5  6 3 4  2 3 5  3 4 5   .2500000000000000  .3333333333333333
  2 4 5  6 4 4  2 5 5  3 4 5   .2500000000000000  .3333333333333333
  # back, child layer 6
  2 2 3  6 1 1  2 2 2  3 2 3   .2500000000000000  .3333333333333333
  2 2 3  6 1 2  2 2 4  3 2 3   .2500000000000000  .3333333333333333
  2 2 4  6 1 3  2 2 3  3 2 4   .2500000000000000  .3333333333333333
  2 2 4  6 1 4  2 2 5  3 2 4   .2500000000000000  .3333333333333333
  # front, child layer 6
  2 5 3  6 4 1  2 5 2  3 5 3   .2500000000000000  .3333333333333333
  2 5 3  6 4 2  2 5 4  3 5 3   .2500000000000000  .3333333333333333
  2 5 4  6 4 3  2 5 3  3 5 4   .2500000000000000  .3333333333333333
  2 5 4  6 4 4  2 5 5  3 5 4   .2500000000000000  .3333333333333333
  # bottom, child layer 6
  3 3 3  6 1 1  3 2 3  3 3 2       .2500000000000000  .2500000000000000
  3 3 3  6 1 2  3 2 3  3 3 4      .2500000000000000  .2500000000000000
  3 3 4  6 1 3  3 2 4  3 3 3      .2500000000000000  .2500000000000000
  3 3 4  6 1 4  3 2 4  3 3 5      .2500000000000000  .2500000000000000
  3 3 3  6 2 1  3 4 3  3 3 2      .2500000000000000  .2500000000000000
  3 3 3  6 2 2  3 4 3  3 3 4      .2500000000000000  .2500000000000000
  3 3 4  6 2 3  3 4 4  3 3 3      .2500000000000000  .2500000000000000
  3 3 4  6 2 4  3 4 4  3 3 5      .2500000000000000  .2500000000000000
  3 4 3  6 3 1  3 3 3  3 4 2      .2500000000000000  .2500000000000000
  3 4 3  6 3 2  3 3 3  3 4 4      .2500000000000000  .2500000000000000
  3 4 4  6 3 3  3 3 4  3 4 3      .2500000000000000  .2500000000000000
  3 4 4  6 3 4  3 3 4  3 4 5      .2500000000000000  .2500000000000000
  3 4 3  6 4 1  3 5 3  3 4 2      .2500000000000000  .2500000000000000
  3 4 3  6 4 2  3 5 3  3 4 4      .2500000000000000  .2500000000000000
  3 4 4  6 4 3  3 5 4  3 4 3      .2500000000000000  .2500000000000000
  3 4 4  6 4 4  3 5 4  3 4 5      .2500000000000000  .2500000000000000
End GncData
