# IC8 input file, prepared by MF5to6 on 8/5/2016 at 18:32:01.

BEGIN Options
END Options

BEGIN GRIDDATA
  STRT LAYERED
    CONSTANT    5.500000    
END GRIDDATA
