# SFR8 input file, prepared by MF5to6 on 8/5/2016 at 18:32:02.

BEGIN Options
  MAXIMUM_DEPTH_CHANGE   0.10000000E-03  
  PRINT_STAGE
  PRINT_FLOWS   
  MOVER
END Options

BEGIN Dimensions
  NREACHES  144
END Dimensions

BEGIN PACKAGEDATA
  # rno cellid rlen           rwid            rgrd            rbtp            rbth            rbhk             man       ncon  ustrf  ndv
  1 1 59 1    1.027778        20.00000       0.1200000E-01    11.55183        1.500000       0.2000000E-01   0.4000000E-01  1  1.0000  0
  2 1 59 2    1.027778        20.00000       0.1200000E-01    11.53950        1.500000       0.2000000E-01   0.4000000E-01  2  1.0000  0
  3 1 59 3    1.027778        20.00000       0.1200000E-01    11.52717        1.500000       0.2000000E-01   0.4000000E-01  2  1.0000  0
  4 1 59 4    1.027778        20.00000       0.1200000E-01    11.51483        1.500000       0.2000000E-01   0.4000000E-01  2  1.0000  0
  5 1 59 5    1.027778        20.00000       0.1200000E-01    11.50250        1.500000       0.2000000E-01   0.4000000E-01  2  1.0000  0
  6 1 59 6    1.027778        20.00000       0.1200000E-01    11.49017        1.500000       0.2000000E-01   0.4000000E-01  2  1.0000  0
  7 1 59 7    1.027778        20.00000       0.1200000E-01    11.47783        1.500000       0.2000000E-01   0.4000000E-01  2  1.0000  0
  8 1 59 8    1.027778        20.00000       0.1200000E-01    11.46550        1.500000       0.2000000E-01   0.4000000E-01  2  1.0000  0
  9 1 59 9    1.027778        20.00000       0.1200000E-01    11.45317        1.500000       0.2000000E-01   0.4000000E-01  2  1.0000  0
  10 1 59 10    1.027778        20.00000       0.1200000E-01    11.44083        1.500000       0.2000000E-01   0.4000000E-01  2  1.0000  0
  11 1 59 11    1.027778        20.00000       0.1200000E-01    11.42850        1.500000       0.2000000E-01   0.4000000E-01  2  1.0000  0
  12 1 59 12    1.027778        20.00000       0.1200000E-01    11.41617        1.500000       0.2000000E-01   0.4000000E-01  2  1.0000  0
  13 1 59 13    1.027778        20.00000       0.1200000E-01    11.40383        1.500000       0.2000000E-01   0.4000000E-01  2  1.0000  0
  14 1 59 14    1.027778        20.00000       0.1200000E-01    11.39150        1.500000       0.2000000E-01   0.4000000E-01  2  1.0000  0
  15 1 59 15    1.027778        20.00000       0.1200000E-01    11.37917        1.500000       0.2000000E-01   0.4000000E-01  2  1.0000  0
  16 1 59 16    1.027778        20.00000       0.1200000E-01    11.36683        1.500000       0.2000000E-01   0.4000000E-01  2  1.0000  0
  17 1 59 17    1.027778        20.00000       0.1200000E-01    11.35450        1.500000       0.2000000E-01   0.4000000E-01  2  1.0000  0
  18 1 59 18    1.027778        20.00000       0.1200000E-01    11.34217        1.500000       0.2000000E-01   0.4000000E-01  2  1.0000  0
  19 1 59 19    1.027778        20.00000       0.1200000E-01    11.32983        1.500000       0.2000000E-01   0.4000000E-01  2  1.0000  0
  20 1 59 20    1.027778        20.00000       0.1200000E-01    11.31750        1.500000       0.2000000E-01   0.4000000E-01  2  1.0000  0
  21 1 59 21    1.027778        20.00000       0.1200000E-01    11.30517        1.500000       0.2000000E-01   0.4000000E-01  2  1.0000  0
  22 1 59 22    1.027778        20.00000       0.1200000E-01    11.29283        1.500000       0.2000000E-01   0.4000000E-01  2  1.0000  0
  23 1 59 23    1.027778        20.00000       0.1200000E-01    11.28050        1.500000       0.2000000E-01   0.4000000E-01  2  1.0000  0
  24 1 59 24    1.027778        20.00000       0.1200000E-01    11.26817        1.500000       0.2000000E-01   0.4000000E-01  2  1.0000  0
  25 1 59 25    1.027778        20.00000       0.1200000E-01    11.25583        1.500000       0.2000000E-01   0.4000000E-01  2  1.0000  0
  26 1 59 26    1.027778        20.00000       0.1200000E-01    11.24350        1.500000       0.2000000E-01   0.4000000E-01  2  1.0000  0
  27 1 59 27    1.027778        20.00000       0.1200000E-01    11.23117        1.500000       0.2000000E-01   0.4000000E-01  2  1.0000  0
  28 1 59 28    1.027778        20.00000       0.1200000E-01    11.21883        1.500000       0.2000000E-01   0.4000000E-01  2  1.0000  0
  29 1 59 29    1.027778        20.00000       0.1200000E-01    11.20650        1.500000       0.2000000E-01   0.4000000E-01  2  1.0000  0
  30 1 59 30    1.027778        20.00000       0.1200000E-01    11.19417        1.500000       0.2000000E-01   0.4000000E-01  2  1.0000  0
  31 1 59 31    1.027778        20.00000       0.1200000E-01    11.18183        1.500000       0.2000000E-01   0.4000000E-01  2  1.0000  0
  32 1 59 32    1.027778        20.00000       0.1200000E-01    11.16950        1.500000       0.2000000E-01   0.4000000E-01  2  1.0000  0
  33 1 59 33    1.027778        20.00000       0.1200000E-01    11.15717        1.500000       0.2000000E-01   0.4000000E-01  2  1.0000  0
  34 1 59 34    1.027778        20.00000       0.1200000E-01    11.14483        1.500000       0.2000000E-01   0.4000000E-01  2  1.0000  0
  35 1 59 35    1.027778        20.00000       0.1200000E-01    11.13250        1.500000       0.2000000E-01   0.4000000E-01  2  1.0000  0
  36 1 59 36    1.027778        20.00000       0.1200000E-01    11.12017        1.500000       0.2000000E-01   0.4000000E-01  2  1.0000  0
  37 1 59 37    1.027778        20.00000       0.1200000E-01    11.10783        1.500000       0.2000000E-01   0.4000000E-01  2  1.0000  0
  38 1 59 38    1.027778        20.00000       0.1200000E-01    11.09550        1.500000       0.2000000E-01   0.4000000E-01  2  1.0000  0
  39 1 59 39    1.027778        20.00000       0.1200000E-01    11.08317        1.500000       0.2000000E-01   0.4000000E-01  2  1.0000  0
  40 1 59 40    1.027778        20.00000       0.1200000E-01    11.07083        1.500000       0.2000000E-01   0.4000000E-01  2  1.0000  0
  41 1 59 41    1.027778        20.00000       0.1200000E-01    11.05850        1.500000       0.2000000E-01   0.4000000E-01  2  1.0000  0
  42 1 59 42    1.027778        20.00000       0.1200000E-01    11.04617        1.500000       0.2000000E-01   0.4000000E-01  2  1.0000  0
  43 1 59 43    1.027778        20.00000       0.1200000E-01    11.03383        1.500000       0.2000000E-01   0.4000000E-01  2  1.0000  0
  44 1 59 44    1.027778        20.00000       0.1200000E-01    11.02150        1.500000       0.2000000E-01   0.4000000E-01  2  1.0000  0
  45 1 59 45    1.027778        20.00000       0.1200000E-01    11.00917        1.500000       0.2000000E-01   0.4000000E-01  2  1.0000  0
  46 1 59 46    1.027778        20.00000       0.1200000E-01    10.99683        1.500000       0.2000000E-01   0.4000000E-01  2  1.0000  0
  47 1 59 47    1.027778        20.00000       0.1200000E-01    10.98450        1.500000       0.2000000E-01   0.4000000E-01  2  1.0000  0
  48 1 59 48    1.027778        20.00000       0.1200000E-01    10.97217        1.500000       0.2000000E-01   0.4000000E-01  2  1.0000  0
  49 1 59 49    1.027778        20.00000       0.1200000E-01    10.95983        1.500000       0.2000000E-01   0.4000000E-01  2  1.0000  0
  50 1 59 50    1.027778        20.00000       0.1200000E-01    10.94750        1.500000       0.2000000E-01   0.4000000E-01  2  1.0000  0
  51 1 59 51    1.027778        20.00000       0.1200000E-01    10.93517        1.500000       0.2000000E-01   0.4000000E-01  2  1.0000  0
  52 1 59 52    1.027778        20.00000       0.1200000E-01    10.92283        1.500000       0.2000000E-01   0.4000000E-01  2  1.0000  0
  53 1 59 53    1.027778        20.00000       0.1200000E-01    10.91050        1.500000       0.2000000E-01   0.4000000E-01  2  1.0000  0
  54 1 59 54    1.027778        20.00000       0.1200000E-01    10.89817        1.500000       0.2000000E-01   0.4000000E-01  2  1.0000  0
  55 1 59 55    1.027778        20.00000       0.1200000E-01    10.88583        1.500000       0.2000000E-01   0.4000000E-01  2  1.0000  0
  56 1 59 56    1.027778        20.00000       0.1200000E-01    10.87350        1.500000       0.2000000E-01   0.4000000E-01  2  1.0000  0
  57 1 59 57    1.027778        20.00000       0.1200000E-01    10.86117        1.500000       0.2000000E-01   0.4000000E-01  2  1.0000  0
  58 1 59 58    1.027778        20.00000       0.1200000E-01    10.84883        1.500000       0.2000000E-01   0.4000000E-01  2  1.0000  0
  59 1 59 59    1.027778        20.00000       0.1200000E-01    10.83650        1.500000       0.2000000E-01   0.4000000E-01  2  1.0000  0
  60 1 59 60    1.027778        20.00000       0.1200000E-01    10.82417        1.500000       0.2000000E-01   0.4000000E-01  2  1.0000  0
  61 1 59 61    1.027778        20.00000       0.1200000E-01    10.81183        1.500000       0.2000000E-01   0.4000000E-01  2  1.0000  0
  62 1 59 62    1.027778        20.00000       0.1200000E-01    10.79950        1.500000       0.2000000E-01   0.4000000E-01  2  1.0000  0
  63 1 59 63    1.027778        20.00000       0.1200000E-01    10.78717        1.500000       0.2000000E-01   0.4000000E-01  2  1.0000  0
  64 1 59 64    1.027778        20.00000       0.1200000E-01    10.77483        1.500000       0.2000000E-01   0.4000000E-01  2  1.0000  0
  65 1 59 65    1.027778        20.00000       0.1200000E-01    10.76250        1.500000       0.2000000E-01   0.4000000E-01  2  1.0000  0
  66 1 59 66    1.027778        20.00000       0.1200000E-01    10.75017        1.500000       0.2000000E-01   0.4000000E-01  2  1.0000  0
  67 1 59 67    1.027778        20.00000       0.1200000E-01    10.73783        1.500000       0.2000000E-01   0.4000000E-01  2  1.0000  0
  68 1 59 68    1.027778        20.00000       0.1200000E-01    10.72550        1.500000       0.2000000E-01   0.4000000E-01  2  1.0000  0
  69 1 59 69    1.027778        20.00000       0.1200000E-01    10.71317        1.500000       0.2000000E-01   0.4000000E-01  2  1.0000  0
  70 1 59 70    1.027778        20.00000       0.1200000E-01    10.70083        1.500000       0.2000000E-01   0.4000000E-01  2  1.0000  0
  71 1 59 71    1.027778        20.00000       0.1200000E-01    10.68850        1.500000       0.2000000E-01   0.4000000E-01  2  1.0000  0
  72 1 59 72    1.027778        20.00000       0.1200000E-01    10.67617        1.500000       0.2000000E-01   0.4000000E-01  2  1.0000  0
  73 1 59 73    1.027778        20.00000       0.1200000E-01    10.66383        1.500000       0.2000000E-01   0.4000000E-01  2  1.0000  0
  74 1 59 74    1.027778        20.00000       0.1200000E-01    10.65150        1.500000       0.2000000E-01   0.4000000E-01  2  1.0000  0
  75 1 59 75    1.027778        20.00000       0.1200000E-01    10.63917        1.500000       0.2000000E-01   0.4000000E-01  2  1.0000  0
  76 1 59 76    1.027778        20.00000       0.1200000E-01    10.62683        1.500000       0.2000000E-01   0.4000000E-01  2  1.0000  0
  77 1 59 77    1.027778        20.00000       0.1200000E-01    10.61450        1.500000       0.2000000E-01   0.4000000E-01  2  1.0000  0
  78 1 59 78    1.027778        20.00000       0.1200000E-01    10.60217        1.500000       0.2000000E-01   0.4000000E-01  2  1.0000  0
  79 1 59 79    1.027778        20.00000       0.1200000E-01    10.58983        1.500000       0.2000000E-01   0.4000000E-01  2  1.0000  0
  80 1 59 80    1.027778        20.00000       0.1200000E-01    10.57750        1.500000       0.2000000E-01   0.4000000E-01  2  1.0000  0
  81 1 59 81    1.027778        20.00000       0.1200000E-01    10.56517        1.500000       0.2000000E-01   0.4000000E-01  2  1.0000  0
  82 1 59 82    1.027778        20.00000       0.1200000E-01    10.55283        1.500000       0.2000000E-01   0.4000000E-01  2  1.0000  0
  83 1 59 83    1.027778        20.00000       0.1200000E-01    10.54050        1.500000       0.2000000E-01   0.4000000E-01  2  1.0000  0
  84 1 59 84    1.027778        20.00000       0.1200000E-01    10.52817        1.500000       0.2000000E-01   0.4000000E-01  2  1.0000  0
  85 1 59 85    1.027778        20.00000       0.1200000E-01    10.51583        1.500000       0.2000000E-01   0.4000000E-01  2  1.0000  0
  86 1 59 86    1.027778        20.00000       0.1200000E-01    10.50350        1.500000       0.2000000E-01   0.4000000E-01  2  1.0000  0
  87 1 59 87    1.027778        20.00000       0.1200000E-01    10.49117        1.500000       0.2000000E-01   0.4000000E-01  2  1.0000  0
  88 1 59 88    1.027778        20.00000       0.1200000E-01    10.47883        1.500000       0.2000000E-01   0.4000000E-01  2  1.0000  0
  89 1 59 89    1.027778        20.00000       0.1200000E-01    10.46650        1.500000       0.2000000E-01   0.4000000E-01  2  1.0000  0
  90 1 59 90    1.027778        20.00000       0.1200000E-01    10.45417        1.500000       0.2000000E-01   0.4000000E-01  2  1.0000  0
  91 1 59 91    1.027778        20.00000       0.1200000E-01    10.44183        1.500000       0.2000000E-01   0.4000000E-01  2  1.0000  0
  92 1 59 92    1.027778        20.00000       0.1200000E-01    10.42950        1.500000       0.2000000E-01   0.4000000E-01  2  1.0000  0
  93 1 59 93    1.027778        20.00000       0.1200000E-01    10.41716        1.500000       0.2000000E-01   0.4000000E-01  2  1.0000  0
  94 1 59 94    1.027778        20.00000       0.1200000E-01    10.40483        1.500000       0.2000000E-01   0.4000000E-01  2  1.0000  0
  95 1 59 95    1.027778        20.00000       0.1200000E-01    10.39250        1.500000       0.2000000E-01   0.4000000E-01  2  1.0000  0
  96 1 59 96    1.027778        20.00000       0.1200000E-01    10.38017        1.500000       0.2000000E-01   0.4000000E-01  2  1.0000  0
  97 1 59 97    1.027778        20.00000       0.1200000E-01    10.36783        1.500000       0.2000000E-01   0.4000000E-01  2  1.0000  0
  98 1 59 98    1.027778        20.00000       0.1200000E-01    10.35550        1.500000       0.2000000E-01   0.4000000E-01  2  1.0000  0
  99 1 59 99    1.027778        20.00000       0.1200000E-01    10.34317        1.500000       0.2000000E-01   0.4000000E-01  2  1.0000  0
  100 1 59 100    1.027778        20.00000       0.1200000E-01    10.33083        1.500000       0.2000000E-01   0.4000000E-01  2  1.0000  0
  101 1 59 101    1.027778        20.00000       0.1200000E-01    10.31850        1.500000       0.2000000E-01   0.4000000E-01  2  1.0000  0
  102 1 59 102    1.027778        20.00000       0.1200000E-01    10.30616        1.500000       0.2000000E-01   0.4000000E-01  2  1.0000  0
  103 1 59 103    1.027778        20.00000       0.1200000E-01    10.29383        1.500000       0.2000000E-01   0.4000000E-01  2  1.0000  0
  104 1 59 104    1.027778        20.00000       0.1200000E-01    10.28150        1.500000       0.2000000E-01   0.4000000E-01  2  1.0000  0
  105 1 59 105    1.027778        20.00000       0.1200000E-01    10.26917        1.500000       0.2000000E-01   0.4000000E-01  2  1.0000  0
  106 1 59 106    1.027778        20.00000       0.1200000E-01    10.25683        1.500000       0.2000000E-01   0.4000000E-01  2  1.0000  0
  107 1 59 107    1.027778        20.00000       0.1200000E-01    10.24450        1.500000       0.2000000E-01   0.4000000E-01  2  1.0000  0
  108 1 59 108    1.027778        20.00000       0.1200000E-01    10.23217        1.500000       0.2000000E-01   0.4000000E-01  2  1.0000  0
  109 1 59 109    1.027778        20.00000       0.1200000E-01    10.21983        1.500000       0.2000000E-01   0.4000000E-01  2  1.0000  0
  110 1 59 110    1.027778        20.00000       0.1200000E-01    10.20750        1.500000       0.2000000E-01   0.4000000E-01  2  1.0000  0
  111 1 59 111    1.027778        20.00000       0.1200000E-01    10.19516        1.500000       0.2000000E-01   0.4000000E-01  2  1.0000  0
  112 1 59 112    1.027778        20.00000       0.1200000E-01    10.18283        1.500000       0.2000000E-01   0.4000000E-01  2  1.0000  0
  113 1 59 113    1.027778        20.00000       0.1200000E-01    10.17050        1.500000       0.2000000E-01   0.4000000E-01  2  1.0000  0
  114 1 59 114    1.027778        20.00000       0.1200000E-01    10.15816        1.500000       0.2000000E-01   0.4000000E-01  2  1.0000  0
  115 1 59 115    1.027778        20.00000       0.1200000E-01    10.14583        1.500000       0.2000000E-01   0.4000000E-01  2  1.0000  0
  116 1 59 116    1.027778        20.00000       0.1200000E-01    10.13350        1.500000       0.2000000E-01   0.4000000E-01  2  1.0000  0
  117 1 59 117    1.027778        20.00000       0.1200000E-01    10.12117        1.500000       0.2000000E-01   0.4000000E-01  2  1.0000  0
  118 1 59 118    1.027778        20.00000       0.1200000E-01    10.10883        1.500000       0.2000000E-01   0.4000000E-01  2  1.0000  0
  119 1 59 119    1.027778        20.00000       0.1200000E-01    10.09650        1.500000       0.2000000E-01   0.4000000E-01  2  1.0000  0
  120 1 59 120    1.027778        20.00000       0.1200000E-01    10.08416        1.500000       0.2000000E-01   0.4000000E-01  2  1.0000  0
  121 1 59 121    1.027778        20.00000       0.1200000E-01    10.07183        1.500000       0.2000000E-01   0.4000000E-01  2  1.0000  0
  122 1 59 122    1.027778        20.00000       0.1200000E-01    10.05950        1.500000       0.2000000E-01   0.4000000E-01  2  1.0000  0
  123 1 59 123    1.027778        20.00000       0.1200000E-01    10.04716        1.500000       0.2000000E-01   0.4000000E-01  2  1.0000  0
  124 1 59 124    1.027778        20.00000       0.1200000E-01    10.03483        1.500000       0.2000000E-01   0.4000000E-01  2  1.0000  0
  125 1 59 125    1.027778        20.00000       0.1200000E-01    10.02250        1.500000       0.2000000E-01   0.4000000E-01  2  1.0000  0
  126 1 59 126    1.027778        20.00000       0.1200000E-01    10.01017        1.500000       0.2000000E-01   0.4000000E-01  2  1.0000  0
  127 1 59 127    1.027778        20.00000       0.1200000E-01    9.997831        1.500000       0.2000000E-01   0.4000000E-01  2  1.0000  0
  128 1 59 128    1.027778        20.00000       0.1200000E-01    9.985498        1.500000       0.2000000E-01   0.4000000E-01  2  1.0000  0
  129 1 59 129    1.027778        20.00000       0.1200000E-01    9.973166        1.500000       0.2000000E-01   0.4000000E-01  2  1.0000  0
  130 1 59 130    1.027778        20.00000       0.1200000E-01    9.960832        1.500000       0.2000000E-01   0.4000000E-01  2  1.0000  0
  131 1 59 131    1.027778        20.00000       0.1200000E-01    9.948499        1.500000       0.2000000E-01   0.4000000E-01  2  1.0000  0
  132 1 59 132    1.027778        20.00000       0.1200000E-01    9.936165        1.500000       0.2000000E-01   0.4000000E-01  2  1.0000  0
  133 1 59 133    1.027778        20.00000       0.1200000E-01    9.923832        1.500000       0.2000000E-01   0.4000000E-01  2  1.0000  0
  134 1 59 134    1.027778        20.00000       0.1200000E-01    9.911499        1.500000       0.2000000E-01   0.4000000E-01  2  1.0000  0
  135 1 59 135    1.027778        20.00000       0.1200000E-01    9.899165        1.500000       0.2000000E-01   0.4000000E-01  2  1.0000  0
  136 1 59 136    1.027778        20.00000       0.1200000E-01    9.886832        1.500000       0.2000000E-01   0.4000000E-01  2  1.0000  0
  137 1 59 137    1.027778        20.00000       0.1200000E-01    9.874499        1.500000       0.2000000E-01   0.4000000E-01  2  1.0000  0
  138 1 59 138    1.027778        20.00000       0.1200000E-01    9.862165        1.500000       0.2000000E-01   0.4000000E-01  2  1.0000  0
  139 1 59 139    1.027778        20.00000       0.1200000E-01    9.849833        1.500000       0.2000000E-01   0.4000000E-01  2  1.0000  0
  140 1 59 140    1.027778        20.00000       0.1200000E-01    9.837500        1.500000       0.2000000E-01   0.4000000E-01  2  1.0000  0
  141 1 59 141    1.027778        20.00000       0.1200000E-01    9.825166        1.500000       0.2000000E-01   0.4000000E-01  2  1.0000  0
  142 1 59 142    1.027778        20.00000       0.1200000E-01    9.812833        1.500000       0.2000000E-01   0.4000000E-01  2  1.0000  0
  143 1 59 143    1.027778        20.00000       0.1200000E-01    9.800499        1.500000       0.2000000E-01   0.4000000E-01  2  1.0000  0
  144 1 59 144    1.027778        20.00000       0.1200000E-01    9.788166        1.500000       0.2000000E-01   0.4000000E-01  1  1.0000  0
END PACKAGEDATA

BEGIN CONNECTIONDATA
  1 -2
  2 1 -3
  3 2 -4
  4 3 -5
  5 4 -6
  6 5 -7
  7 6 -8
  8 7 -9
  9 8 -10
  10 9 -11
  11 10 -12
  12 11 -13
  13 12 -14
  14 13 -15
  15 14 -16
  16 15 -17
  17 16 -18
  18 17 -19
  19 18 -20
  20 19 -21
  21 20 -22
  22 21 -23
  23 22 -24
  24 23 -25
  25 24 -26
  26 25 -27
  27 26 -28
  28 27 -29
  29 28 -30
  30 29 -31
  31 30 -32
  32 31 -33
  33 32 -34
  34 33 -35
  35 34 -36
  36 35 -37
  37 36 -38
  38 37 -39
  39 38 -40
  40 39 -41
  41 40 -42
  42 41 -43
  43 42 -44
  44 43 -45
  45 44 -46
  46 45 -47
  47 46 -48
  48 47 -49
  49 48 -50
  50 49 -51
  51 50 -52
  52 51 -53
  53 52 -54
  54 53 -55
  55 54 -56
  56 55 -57
  57 56 -58
  58 57 -59
  59 58 -60
  60 59 -61
  61 60 -62
  62 61 -63
  63 62 -64
  64 63 -65
  65 64 -66
  66 65 -67
  67 66 -68
  68 67 -69
  69 68 -70
  70 69 -71
  71 70 -72
  72 71 -73
  73 72 -74
  74 73 -75
  75 74 -76
  76 75 -77
  77 76 -78
  78 77 -79
  79 78 -80
  80 79 -81
  81 80 -82
  82 81 -83
  83 82 -84
  84 83 -85
  85 84 -86
  86 85 -87
  87 86 -88
  88 87 -89
  89 88 -90
  90 89 -91
  91 90 -92
  92 91 -93
  93 92 -94
  94 93 -95
  95 94 -96
  96 95 -97
  97 96 -98
  98 97 -99
  99 98 -100
  100 99 -101
  101 100 -102
  102 101 -103
  103 102 -104
  104 103 -105
  105 104 -106
  106 105 -107
  107 106 -108
  108 107 -109
  109 108 -110
  110 109 -111
  111 110 -112
  112 111 -113
  113 112 -114
  114 113 -115
  115 114 -116
  116 115 -117
  117 116 -118
  118 117 -119
  119 118 -120
  120 119 -121
  121 120 -122
  122 121 -123
  123 122 -124
  124 123 -125
  125 124 -126
  126 125 -127
  127 126 -128
  128 127 -129
  129 128 -130
  130 129 -131
  131 130 -132
  132 131 -133
  133 132 -134
  134 133 -135
  135 134 -136
  136 135 -137
  137 136 -138
  138 137 -139
  139 138 -140
  140 139 -141
  141 140 -142
  142 141 -143
  143 142 -144
  144 143
END CONNECTIONDATA

BEGIN PERIOD 1
  1 inflow   0.0000000
  1 rainfall   0.0000000
  1 evaporation   0.0000000
  1 runoff   0.0000000
  2 inflow   0.0000000
  2 rainfall   0.0000000
  2 evaporation   0.0000000
  2 runoff   0.0000000
  3 inflow   0.0000000
  3 rainfall   0.0000000
  3 evaporation   0.0000000
  3 runoff   0.0000000
  4 inflow   0.0000000
  4 rainfall   0.0000000
  4 evaporation   0.0000000
  4 runoff   0.0000000
  5 inflow   0.0000000
  5 rainfall   0.0000000
  5 evaporation   0.0000000
  5 runoff   0.0000000
  6 inflow   0.0000000
  6 rainfall   0.0000000
  6 evaporation   0.0000000
  6 runoff   0.0000000
  7 inflow   0.0000000
  7 rainfall   0.0000000
  7 evaporation   0.0000000
  7 runoff   0.0000000
  8 inflow   0.0000000
  8 rainfall   0.0000000
  8 evaporation   0.0000000
  8 runoff   0.0000000
  9 inflow   0.0000000
  9 rainfall   0.0000000
  9 evaporation   0.0000000
  9 runoff   0.0000000
  10 inflow   0.0000000
  10 rainfall   0.0000000
  10 evaporation   0.0000000
  10 runoff   0.0000000
  11 inflow   0.0000000
  11 rainfall   0.0000000
  11 evaporation   0.0000000
  11 runoff   0.0000000
  12 inflow   0.0000000
  12 rainfall   0.0000000
  12 evaporation   0.0000000
  12 runoff   0.0000000
  13 inflow   0.0000000
  13 rainfall   0.0000000
  13 evaporation   0.0000000
  13 runoff   0.0000000
  14 inflow   0.0000000
  14 rainfall   0.0000000
  14 evaporation   0.0000000
  14 runoff   0.0000000
  15 inflow   0.0000000
  15 rainfall   0.0000000
  15 evaporation   0.0000000
  15 runoff   0.0000000
  16 inflow   0.0000000
  16 rainfall   0.0000000
  16 evaporation   0.0000000
  16 runoff   0.0000000
  17 inflow   0.0000000
  17 rainfall   0.0000000
  17 evaporation   0.0000000
  17 runoff   0.0000000
  18 inflow   0.0000000
  18 rainfall   0.0000000
  18 evaporation   0.0000000
  18 runoff   0.0000000
  19 inflow   0.0000000
  19 rainfall   0.0000000
  19 evaporation   0.0000000
  19 runoff   0.0000000
  20 inflow   0.0000000
  20 rainfall   0.0000000
  20 evaporation   0.0000000
  20 runoff   0.0000000
  21 inflow   0.0000000
  21 rainfall   0.0000000
  21 evaporation   0.0000000
  21 runoff   0.0000000
  22 inflow   0.0000000
  22 rainfall   0.0000000
  22 evaporation   0.0000000
  22 runoff   0.0000000
  23 inflow   0.0000000
  23 rainfall   0.0000000
  23 evaporation   0.0000000
  23 runoff   0.0000000
  24 inflow   0.0000000
  24 rainfall   0.0000000
  24 evaporation   0.0000000
  24 runoff   0.0000000
  25 inflow   0.0000000
  25 rainfall   0.0000000
  25 evaporation   0.0000000
  25 runoff   0.0000000
  26 inflow   0.0000000
  26 rainfall   0.0000000
  26 evaporation   0.0000000
  26 runoff   0.0000000
  27 inflow   0.0000000
  27 rainfall   0.0000000
  27 evaporation   0.0000000
  27 runoff   0.0000000
  28 inflow   0.0000000
  28 rainfall   0.0000000
  28 evaporation   0.0000000
  28 runoff   0.0000000
  29 inflow   0.0000000
  29 rainfall   0.0000000
  29 evaporation   0.0000000
  29 runoff   0.0000000
  30 inflow   0.0000000
  30 rainfall   0.0000000
  30 evaporation   0.0000000
  30 runoff   0.0000000
  31 inflow   0.0000000
  31 rainfall   0.0000000
  31 evaporation   0.0000000
  31 runoff   0.0000000
  32 inflow   0.0000000
  32 rainfall   0.0000000
  32 evaporation   0.0000000
  32 runoff   0.0000000
  33 inflow   0.0000000
  33 rainfall   0.0000000
  33 evaporation   0.0000000
  33 runoff   0.0000000
  34 inflow   0.0000000
  34 rainfall   0.0000000
  34 evaporation   0.0000000
  34 runoff   0.0000000
  35 inflow   0.0000000
  35 rainfall   0.0000000
  35 evaporation   0.0000000
  35 runoff   0.0000000
  36 inflow   0.0000000
  36 rainfall   0.0000000
  36 evaporation   0.0000000
  36 runoff   0.0000000
  37 inflow   0.0000000
  37 rainfall   0.0000000
  37 evaporation   0.0000000
  37 runoff   0.0000000
  38 inflow   0.0000000
  38 rainfall   0.0000000
  38 evaporation   0.0000000
  38 runoff   0.0000000
  39 inflow   0.0000000
  39 rainfall   0.0000000
  39 evaporation   0.0000000
  39 runoff   0.0000000
  40 inflow   0.0000000
  40 rainfall   0.0000000
  40 evaporation   0.0000000
  40 runoff   0.0000000
  41 inflow   0.0000000
  41 rainfall   0.0000000
  41 evaporation   0.0000000
  41 runoff   0.0000000
  42 inflow   0.0000000
  42 rainfall   0.0000000
  42 evaporation   0.0000000
  42 runoff   0.0000000
  43 inflow   0.0000000
  43 rainfall   0.0000000
  43 evaporation   0.0000000
  43 runoff   0.0000000
  44 inflow   0.0000000
  44 rainfall   0.0000000
  44 evaporation   0.0000000
  44 runoff   0.0000000
  45 inflow   0.0000000
  45 rainfall   0.0000000
  45 evaporation   0.0000000
  45 runoff   0.0000000
  46 inflow   0.0000000
  46 rainfall   0.0000000
  46 evaporation   0.0000000
  46 runoff   0.0000000
  47 inflow   0.0000000
  47 rainfall   0.0000000
  47 evaporation   0.0000000
  47 runoff   0.0000000
  48 inflow   0.0000000
  48 rainfall   0.0000000
  48 evaporation   0.0000000
  48 runoff   0.0000000
  49 inflow   0.0000000
  49 rainfall   0.0000000
  49 evaporation   0.0000000
  49 runoff   0.0000000
  50 inflow   0.0000000
  50 rainfall   0.0000000
  50 evaporation   0.0000000
  50 runoff   0.0000000
  51 inflow   0.0000000
  51 rainfall   0.0000000
  51 evaporation   0.0000000
  51 runoff   0.0000000
  52 inflow   0.0000000
  52 rainfall   0.0000000
  52 evaporation   0.0000000
  52 runoff   0.0000000
  53 inflow   0.0000000
  53 rainfall   0.0000000
  53 evaporation   0.0000000
  53 runoff   0.0000000
  54 inflow   0.0000000
  54 rainfall   0.0000000
  54 evaporation   0.0000000
  54 runoff   0.0000000
  55 inflow   0.0000000
  55 rainfall   0.0000000
  55 evaporation   0.0000000
  55 runoff   0.0000000
  56 inflow   0.0000000
  56 rainfall   0.0000000
  56 evaporation   0.0000000
  56 runoff   0.0000000
  57 inflow   0.0000000
  57 rainfall   0.0000000
  57 evaporation   0.0000000
  57 runoff   0.0000000
  58 inflow   0.0000000
  58 rainfall   0.0000000
  58 evaporation   0.0000000
  58 runoff   0.0000000
  59 inflow   0.0000000
  59 rainfall   0.0000000
  59 evaporation   0.0000000
  59 runoff   0.0000000
  60 inflow   0.0000000
  60 rainfall   0.0000000
  60 evaporation   0.0000000
  60 runoff   0.0000000
  61 inflow   0.0000000
  61 rainfall   0.0000000
  61 evaporation   0.0000000
  61 runoff   0.0000000
  62 inflow   0.0000000
  62 rainfall   0.0000000
  62 evaporation   0.0000000
  62 runoff   0.0000000
  63 inflow   0.0000000
  63 rainfall   0.0000000
  63 evaporation   0.0000000
  63 runoff   0.0000000
  64 inflow   0.0000000
  64 rainfall   0.0000000
  64 evaporation   0.0000000
  64 runoff   0.0000000
  65 inflow   0.0000000
  65 rainfall   0.0000000
  65 evaporation   0.0000000
  65 runoff   0.0000000
  66 inflow   0.0000000
  66 rainfall   0.0000000
  66 evaporation   0.0000000
  66 runoff   0.0000000
  67 inflow   0.0000000
  67 rainfall   0.0000000
  67 evaporation   0.0000000
  67 runoff   0.0000000
  68 inflow   0.0000000
  68 rainfall   0.0000000
  68 evaporation   0.0000000
  68 runoff   0.0000000
  69 inflow   0.0000000
  69 rainfall   0.0000000
  69 evaporation   0.0000000
  69 runoff   0.0000000
  70 inflow   0.0000000
  70 rainfall   0.0000000
  70 evaporation   0.0000000
  70 runoff   0.0000000
  71 inflow   0.0000000
  71 rainfall   0.0000000
  71 evaporation   0.0000000
  71 runoff   0.0000000
  72 inflow   0.0000000
  72 rainfall   0.0000000
  72 evaporation   0.0000000
  72 runoff   0.0000000
  73 inflow   0.0000000
  73 rainfall   0.0000000
  73 evaporation   0.0000000
  73 runoff   0.0000000
  74 inflow   0.0000000
  74 rainfall   0.0000000
  74 evaporation   0.0000000
  74 runoff   0.0000000
  75 inflow   0.0000000