# OC8 input file, prepared by MF5to6 on 8/5/2016 at 18:32:02.

BEGIN Options
  BUDGET FILEOUT  CHILD.cbc
  HEAD FILEOUT  CHILD.hds
  HEAD PRINT_FORMAT  COLUMNS 9  WIDTH 13  DIGITS 6  GENERAL        
END Options

BEGIN PERIOD 1
  SAVE BUDGET ALL
  PRINT BUDGET ALL
  SAVE HEAD ALL
  PRINT HEAD ALL
END PERIOD
