# WEL8 input file, prepared by MF5to6 on 8/5/2016 at 18:32:02.

BEGIN Options
  PRINT_INPUT
END Options

BEGIN Dimensions
  MAXBOUND  1
END Dimensions

BEGIN PERIOD 1
  1  59  68  -0.55000000E-02
END PERIOD
