# MVR6 input file, prepared by MF5to6 on 8/5/2016 at 18:32:02.

BEGIN Options
  PRINT_INPUT
  PRINT_FLOWS
  MODELNAMES
END Options

BEGIN Dimensions
  MAXMVR  2
  MAXPACKAGES  2
END Dimensions

BEGIN Packages
  PARENT SFR-1
  CHILD  SFR-2
END Packages

BEGIN Period 1
  PARENT  SFR-1  22  CHILD  SFR-2  1  FACTOR  1.000000000000000
  CHILD   SFR-2  144 PARENT SFR-1  23  FACTOR  1.000000000000000
END Period
