# IC8 input file, prepared by MF5to6 on 8/5/2016 at 18:32:01.

BEGIN Options
END Options

BEGIN GRIDDATA
  STRT LAYERED
    INTERNAL  FACTOR    1.000000      IPRN  9
   10.00000       5.500000       5.500000       5.500000       5.500000       5.500000       5.500000       5.500000       5.500000       5.500000    
   5.500000       5.500000       5.500000       5.500000       5.500000       5.500000       5.500000       5.500000       5.500000       5.500000    
   5.500000       5.500000       5.500000       5.500000       5.500000       5.500000       5.500000       5.500000       5.500000       5.500000    
   5.500000       5.500000       5.500000       5.500000       5.500000       5.500000       5.500000       5.500000       5.500000       5.500000    
   5.500000       5.500000       5.500000       5.500000       5.500000       5.500000       5.500000       5.500000       5.500000       5.500000    
   5.500000       5.500000       5.500000       5.500000       5.500000       5.500000       5.500000       5.500000       5.500000       5.500000    
   5.500000       5.500000       5.500000       5.500000       5.500000       5.500000       5.500000       5.500000       5.500000       5.500000    
   5.500000       5.500000       5.500000       5.500000       5.500000       5.500000       5.500000       5.500000       5.500000       5.500000    
   5.500000       5.500000       5.500000       5.500000       5.500000       5.500000       5.500000       5.500000       5.500000       5.500000    
   5.500000       5.500000       5.500000       5.500000       5.500000       5.500000       5.500000       5.500000       5.500000       5.500000    
   5.500000       5.500000       5.500000       5.500000       5.500000       5.500000       5.500000       1.000000    
   10.00000       5.500000       5.500000       5.500000       5.500000       5.500000       5.500000       5.500000       5.500000       5.500000    
   5.500000       5.500000       5.500000       5.500000       5.500000       5.500000       5.500000       5.500000       5.500000       5.500000    
   5.500000       5.500000       5.500000       5.500000       5.500000       5.500000       5.500000       5.500000       5.500000       5.500000    
   5.500000       5.500000       5.500000       5.500000       5.500000       5.500000       5.500000       5.500000       5.500000       5.500000    
   5.500000       5.500000       5.500000       5.500000       5.500000       5.500000       5.500000       5.500000       5.500000       5.500000    
   5.500000       5.500000       5.500000       5.500000       5.500000       5.500000       5.500000       5.500000       5.500000       5.500000    
   5.500000       5.500000       5.500000       5.500000       5.500000       5.500000       5.500000       5.500000       5.500000       5.500000    
   5.500000       5.500000       5.500000       5.500000       5.500000       5.500000       5.500000       5.500000       5.500000       5.500000    
   5.500000       5.500000       5.500000       5.500000       5.500000       5.500000       5.500000       5.500000       5.500000       5.500000    
   5.500000       5.500000       5.500000       5.500000       5.500000       5.500000       5.500000       5.500000       5.500000       5.500000    
   5.500000       5.500000       5.500000       5.500000       5.500000       5.500000       5.500000       1.000000    
   10.00000       5.500000       5.500000       5.500000       5.500000       5.500000       5.500000       5.500000       5.500000       5.500000    
   5.500000       5.500000       5.500000       5.500000       5.500000       5.500000       5.500000       5.500000       5.500000       5.500000    
   5.500000       5.500000       5.500000       5.500000       5.500000       5.500000       5.500000       5.500000       5.500000       5.500000    
   5.500000       5.500000       5.500000       5.500000       5.500000       5.500000       5.500000       5.500000       5.500000       5.500000    
   5.500000       5.500000       5.500000       5.500000       5.500000       5.500000       5.500000       5.500000       5.500000       5.500000    
   5.500000       5.500000       5.500000       5.500000       5.500000       5.500000       5.500000       5.500000       5.500000       5.500000    
   5.500000       5.500000       5.500000       5.500000       5.500000       5.500000       5.500000       5.500000       5.500000       5.500000    
   5.500000       5.500000       5.500000       5.500000       5.500000       5.500000       5.500000       5.500000       5.500000       5.500000    
   5.500000       5.500000       5.500000       5.500000       5.500000       5.500000       5.500000       5.500000       5.500000       5.500000    
   5.500000       5.500000       5.500000       5.500000       5.500000       5.500000       5.500000       5.500000       5.500000       5.500000    
   5.500000       5.500000       5.500000       5.500000       5.500000       5.500000       5.500000       1.000000    
   10.00000       5.500000       5.500000       5.500000       5.500000       5.500000       5.500000       5.500000       5.500000       5.500000    
   5.500000       5.500000       5.500000       5.500000       5.500000       5.500000       5.500000       5.500000       5.500000       5.500000    
   5.500000       5.500000       5.500000       5.500000       5.500000       5.500000       5.500000       5.500000       5.500000       5.500000    
   5.500000       5.500000       5.500000       5.500000       5.500000       5.500000       5.500000       5.500000       5.500000       5.500000    
   5.500000       5.500000       5.500000       5.500000       5.500000       5.500000       5.500000       5.500000       5.500000       5.500000    
   5.500000       5.500000       5.500000       5.500000       5.500000       5.500000       5.500000       5.500000       5.500000       5.500000    
   5.500000       5.500000       5.500000       5.500000       5.500000       5.500000       5.500000       5.500000       5.500000       5.500000    
   5.500000       5.500000       5.500000       5.500000       5.500000       5.500000       5.500000       5.500000       5.500000       5.500000    
   5.500000       5.500000       5.500000       5.500000       5.500000       5.500000       5.500000       5.500000       5.500000       5.500000    
   5.500000       5.500000       5.500000       5.500000       5.500000       5.500000       5.500000       5.500000       5.500000       5.500000    
   5.500000       5.500000       5.500000       5.500000       5.500000       5.500000       5.500000       1.000000    
   10.00000       5.500000       5.500000       5.500000       5.500000       5.500000       5.500000       5.500000       5.500000       5.500000    
   5.500000       5.500000       5.500000       5.500000       5.500000       5.500000       5.500000       5.500000       5.500000       5.500000    
   5.500000       5.500000       5.500000       5.500000       5.500000       5.500000       5.500000       5.500000       5.500000       5.500000    
   5.500000       5.500000       5.500000       5.500000       5.500000       5.500000       5.500000       5.500000       5.500000       5.500000    
   5.500000       5.500000       5.500000       5.500000       5.500000       5.500000       5.500000       5.500000       5.500000       5.500000    
   5.500000       5.500000       5.500000       5.500000       5.500000       5.500000       5.500000       5.500000       5.500000       5.500000    
   5.500000       5.500000       5.500000       5.500000       5.500000       5.500000       5.500000       5.500000       5.500000       5.500000    
   5.500000       5.500000       5.500000       5.500000       5.500000       5.500000       5.500000       5.500000       5.500000       5.500000    
   5.500000       5.500000       5.500000       5.500000       5.500000       5.500000       5.500000       5.500000       5.500000       5.500000    
   5.500000       5.500000       5.500000       5.500000       5.500000       5.500000       5.500000       5.500000       5.500000       5.500000    
   5.500000       5.500000       5.500000       5.500000       5.500000       5.500000       5.500000       1.000000    
   10.00000       5.500000       5.500000       5.500000       5.500000       5.500000       5.500000       5.500000       5.500000       5.500000    
   5.500000       5.500000       5.500000       5.500000       5.500000       5.500000       5.500000       5.500000       5.500000       5.500000    
   5.500000       5.500000       5.500000       5.500000       5.500000       5.500000       5.500000       5.500000       5.500000       5.500000    
   5.500000       5.500000       5.500000       5.500000       5.500000       5.500000       5.500000       5.500000       5.500000       5.500000    
   5.500000       5.500000       5.500000       5.500000       5.500000       5.500000       5.500000       5.500000       5.500000       5.500000    
   5.500000       5.500000       5.500000       5.500000       5.500000       5.500000       5.500000       5.500000       5.500000       5.500000    
   5.500000       5.500000       5.500000       5.500000       5.500000       5.500000       5.500000       5.500000       5.500000       5.500000    
   5.500000       5.500000       5.500000       5.500000       5.500000       5.500000       5.500000       5.500000       5.500000       5.500000    
   5.500000       5.500000       5.500000       5.500000       5.500000       5.500000       5.500000       5.500000       5.500000       5.500000    
   5.500000       5.500000       5.500000       5.500000       5.500000       5.500000       5.500000       5.500000       5.500000       5.500000    
   5.500000       5.500000       5.500000       5.500000       5.500000       5.500000       5.500000       1.000000    
   10.00000       5.500000       5.500000       5.500000       5.500000       5.500000       5.500000       5.500000       5.500000       5.500000    
   5.500000       5.500000       5.500000       5.500000       5.500000       5.500000       5.500000       5.500000       5.500000       5.500000    
   5.500000       5.500000       5.500000       5.500000       5.500000       5.500000       5.500000       5.500000       5.500000       5.500000    
   5.500000       5.500000       5.500000       5.500000       5.500000       5.500000       5.500000       5.500000       5.500000       5.500000    
   5.500000       5.500000       5.500000       5.500000       5.500000       5.500000       5.500000       5.500000       5.500000       5.500000    
   5.500000       5.500000       5.500000       5.500000       5.500000       5.500000       5.500000       5.500000       5.500000       5.500000    
   5.500000       5.500000       5.500000       5.500000       5.500000       5.500000       5.500000       5.500000       5.500000       5.500000    
   5.500000       5.500000       5.500000       5.500000       5.500000       5.500000       5.500000       5.500000       5.500000       5.500000    
   5.500000       5.500000       5.500000       5.500000       5.500000       5.500000       5.500000       5.500000       5.500000       5.500000    
   5.500000       5.500000       5.500000       5.500000       5.500000       5.500000       5.500000       5.500000       5.500000       5.500000    
   5.500000       5.500000       5.500000       5.500000       5.500000       5.500000       5.500000       1.000000    
   10.00000       5.500000       5.500000       5.500000       5.500000       5.500000       5.500000       5.500000       5.500000       5.500000    
   5.500000       5.500000       5.500000       5.500000       5.500000       5.500000       5.500000       5.500000       5.500000       5.500000    
   5.500000       5.500000       5.500000       5.500000       5.500000       5.500000       5.500000       5.500000       5.500000       5.500000    
   5.500000       5.500000       5.500000       5.500000       5.500000       5.500000       5.500000       5.500000       5.500000       5.500000    
   5.500000       5.500000       5.500000       5.500000       5.500000       5.500000       5.500000       5.500000       5.500000       5.500000    
   5.500000       5.500000       5.500000       5.500000       5.500000       5.500000       5.500000       5.500000       5.500000       5.500000    
   5.500000       5.500000       5.500000       5.500000       5.500000       5.500000       5.500000       5.500000       5.500000       5.500000    
   5.500000       5.500000       5.500000       5.500000       5.500000       5.500000       5.500000       5.500000       5.500000       5.500000    
   5.500000       5.500000       5.500000       5.500000       5.500000       5.500000       5.500000       5.500000       5.500000       5.500000    
   5.500000       5.500000       5.500000       5.500000       5.500000       5.500000       5.500000       5.500000       5.500000       5.500000    
   5.500000       5.500000       5.500000       5.500000       5.500000       5.500000       5.500000       1.000000    
   10.00000       5.500000       5.500000       5.500000       5.500000       5.500000       5.500000       5.500000       5.500000       5.500000    
   5.500000       5.500000       5.500000       5.500000       5.500000       5.500000       5.500000       5.500000       5.500000       5.500000    
   5.500000       5.500000       5.500000       5.500000       5.500000       5.500000       5.500000       5.500000       5.500000       5.500000    
   5.500000       5.500000       5.500000       5.500000       5.500000       5.500000       5.500000       5.500000       5.500000       5.500000    
   5.500000       5.500000       5.500000       5.500000       5.500000       5.500000       5.500000       5.500000       5.500000       5.500000    
   5.500000       5.500000       5.500000       5.500000       5.500000       5.500000       5.500000       5.500000       5.500000       5.500000    
   5.500000       5.500000       5.500000       5.500000       5.500000       5.500000       5.500000       5.500000       5.500000       5.500000    
   5.500000       5.500000       5.500000       5.500000       5.500000       5.500000       5.500000       5.500000       5.500000       5.500000    
   5.500000       5.500000       5.500000       5.500000       5.500000       5.500000       5.500000       5.500000       5.500000       5.500000    
   5.500000       5.500000       5.500000       5.500000       5.500000       5.500000       5.500000       5.500000       5.500000       5.500000    
   5.500000       5.500000       5.500000       5.500000       5.500000       5.500000       5.500000       1.000000    
   10.00000       5.500000       5.500000       5.500000       5.500000       5.500000       5.500000       5.500000       5.500000       5.500000    
   5.500000       5.500000       5.500000       5.500000       5.500000       5.500000       5.500000       5.500000       5.500000       5.500000    
   5.500000       5.500000       5.500000       5.500000       5.500000       5.500000       5.500000       5.500000       5.500000       5.500000    
   5.500000       5.500000       5.500000       5.500000       5.500000       5.500000       5.500000       5.500000       5.500000       5.500000    
   5.500000       5.500000       5.500000       5.500000       5.500000       5.500000       5.500000       5.500000       5.500000       5.500000    
   5.500000       5.500000       5.500000       5.500000       5.500000       5.500000       5.500000       5.500000       5.500000       5.500000    
   5.500000       5.500000       5.500000       5.500000       5.500000       5.500000       5.500000       5.500000       5.500000       5.500000    
   5.500000       5.500000       5.500000       5.500000       5.500000       5.500000       5.500000       5.500000       5.500000       5.500000    
   5.500000       5.500000       5.500000       5.500000       5.500000       5.500000       5.500000       5.500000       5.500000       5.500000    
   5.500000       5.500000       5.500000       5.500000       5.500000       5.500000       5.500000       5.500000       5.500000       5.500000    
   5.500000       5.500000       5.500000       5.500000       5.500000       5.500000       5.500000       1.000000    
   10.00000       5.500000       5.500000       5.500000       5.500000       5.500000       5.500000       5.500000       5.500000       5.500000    
   5.500000       5.500000       5.500000       5.500000       5.500000       5.500000       5.500000       5.500000       5.500000       5.500000    
   5.500000       5.500000       5.500000       5.500000       5.500000       5.500000       5.500000       5.500000       5.500000       5.500000    
   5.500000       5.500000       5.500000       5.500000       5.500000       5.500000       5.500000       5.500000       5.500000       5.500000    
   5.500000       5.500000       5.500000       5.500000       5.500000       5.500000       5.500000       5.500000       5.500000       5.500000    
   5.500000       5.500000       5.500000       5.500000       5.500000       5.500000       5.500000       5.500000       5.500000       5.500000    
   5.500000       5.500000       5.500000       5.500000       5.500000       5.500000       5.500000       5.500000       5.500000       5.500000    
   5.500000       5.500000       5.500000       5.500000       5.500000       5.500000       5.500000       5.500000       5.500000       5.500000    
   5.500000       5.500000       5.500000       5.500000       5.500000       5.500000       5.500000       5.500000       5.500000       5.500000    
   5.500000       5.500000       5.500000       5.500000       5.500000       5.500000       5.500000       5.500000       5.500000       5.500000    
   5.500000       5.500000       5.500000       5.500000       5.500000       5.500000       5.500000       1.000000    
   10.00000       5.500000       5.500000       5.500000       5.500000       5.500000       5.500000       5.500000       5.500000       5.500000    
   5.500000       5.500000       5.500000       5.500000       5.500000       5.500000       5.500000       5.500000       5.500000       5.500000    
   5.500000       5.500000       5.500000       5.500000       5.500000       5.500000       5.500000       5.500000       5.500000       5.500000    
   5.500000       5.500000       5.500000       5.500000       5.500000       5.500000       5.500000       5.500000       5.500000       5.500000    
   5.500000       5.500000       5.500000       5.500000       5.500000       5.500000       5.500000       5.500000       5.500000       5.500000    
   5.500000       5.500000       5.500000       5.500000       5.500000       5.500000       5.500000       5.500000       5.500000       5.500000    
   5.500000       5.500000       5.500000       5.500000       5.500000       5.500000       5.500000       5.500000       5.500000       5.500000    
   5.500000       5.500000       5.500000       5.500000       5.500000       5.500000       5.500000       5.500000       5.500000       5.500000    
   5.500000       5.500000       5.500000       5.500000       5.500000       5.500000       5.500000       5.500000       5.500000       5.500000    
   5.500000       5.500000       5.500000       5.500000       5.500000       5.500000       5.500000       5.500000       5.500000       5.500000    
   5.500000       5.500000       5.500000       5.500000       5.500000       5.500000       5.500000       1.000000    
   10.00000       5.500000       5.500000       5.500000       5.500000       5.500000       5.500000       5.500000       5.500000       5.500000    
   5.500000       5.500000       5.500000       5.500000       5.500000       5.500000       5.500000       5.500000       5.500000       5.500000    
   5.500000       5.500000       5.500000       5.500000       5.500000       5.500000       5.500000       5.500000       5.500000       5.500000    
   5.500000       5.500000       5.500000       5.500000       5.500000       5.500000       5.500000       5.500000       5.500000       5.500000    
   5.500000       5.500000       5.500000       5.500000       5.500000       5.500000       5.500000       5.500000       5.500000       5.500000    
   5.500000       5.500000       5.500000       5.500000       5.500000       5.500000       5.500000       5.500000       5.500000       5.500000    
   5.500000       5.500000       5.500000       5.500000       5.500000       5.500000       5.500000       5.500000       5.500000       5.500000    
   5.500000       5.500000       5.500000       5.500000       5.500000       5.500000       5.500000       5.500000       5.500000       5.500000    
   5.500000       5.500000       5.500000       5.500000       5.500000       5.500000       5.500000       5.500000       5.500000       5.500000    
   5.500000       5.500000       5.500000       5.500000       5.500000       5.500000       5.500000       5.500000       5.500000       5.500000    
   5.500000       5.500000       5.500000       5.500000       5.500000       5.500000       5.500000       1.000000    
   10.00000       5.500000       5.500000       5.500000       5.500000       5.500000       5.500000       5.500000       5.500000       5.500000    
   5.500000       5.500000       5.500000       5.500000       5.500000       5.500000       5.500000       5.500000       5.500000       5.500000    
   5.500000       5.500000       5.500000       5.500000       5.500000       5.500000       5.500000       5.500000       5.500000       5.500000    
   5.500000       5.500000       5.500000       5.500000       5.500000       5.500000       5.500000       5.500000       5.500000       5.500000    
   5.500000       5.500000       5.500000       5.500000       5.500000       5.500000       5.500000       5.500000       5.500000       5.500000    
   5.500000       5.500000       5.500000       5.500000       5.500000       5.500000       5.500000       5.500000       5.500000       5.500000    
   5.500000       5.500000       5.500000       5.500000       5.500000       5.500000       5.500000       5.500000       5.500000       5.500000    
   5.500000       5.500000       5.500000       5.500000       5.500000       5.500000       5.500000       5.500000       5.500000       5.500000    
   5.500000       5.500000       5.500000       5.500000       5.500000       5.500000       5.500000       5.500000       5.500000       5.500000    
   5.500000       5.500000       5.500000       5.500000       5.500000       5.500000       5.500000       5.500000       5.500000       5.500000    
   5.500000       5.500000       5.500000       5.500000       5.500000       5.500000       5.500000       1.000000    
   10.00000       5.500000       5.500000       5.500000       5.500000       5.500000       5.500000       5.500000       5.500000       5.500000    
   5.500000       5.500000       5.500000       5.500000       5.500000       5.500000       5.500000       5.500000       5.500000       5.500000    
   5.500000       5.500000       5.500000       5.500000       5.500000       5.500000       5.500000       5.500000       5.500000       5.500000    
   5.500000       5.500000       5.500000       5.500000       5.500000       5.500000       5.500000       5.500000       5.500000       5.500000    
   5.500000       5.500000       5.500000       5.500000       5.500000       5.500000       5.500000       5.500000       5.500000       5.500000    
   5.500000       5.500000       5.500000       5.500000       5.500000       5.500000       5.500000       5.500000       5.500000       5.500000    
   5.500000       5.500000       5.500000       5.500000       5.500000       5.500000       5.500000       5.500000       5.500000       5.500000    
   5.500000       5.500000       5.500000       5.500000       5.500000       5.500000       5.500000       5.500000       5.500000       5.500000    
   5.500000       5.500000       5.500000       5.500000       5.500000       5.500000       5.500000       5.500000       5.500000       5.500000    
   5.500000       5.500000       5.500000       5.500000       5.500000       5.500000       5.500000       5.500000       5.500000       5.500000    
   5.500000       5.500000       5.500000       5.500000       5.500000       5.500000       5.500000       1.000000    
   10.00000       5.500000       5.500000       5.500000       5.500000       5.500000       5.500000       5.500000       5.500000       5.500000    
   5.500000       5.500000       5.500000       5.500000       5.500000       5.500000       5.500000       5.500000       5.500000       5.500000    
   5.500000       5.500000       5.500000       5.500000       5.500000       5.500000       5.500000       5.500000       5.500000       5.500000    
   5.500000       5.500000       5.500000       5.500000       5.500000       5.500000       5.500000       5.500000       5.500000       5.500000    
   5.500000       5.500000       5.500000       5.500000       5.500000       5.500000       5.500000       5.500000       5.500000       5.500000    
   5.500000       5.500000       5.500000       5.500000       5.500000       5.500000       5.500000       5.500000       5.500000       5.500000    
   5.500000       5.500000       5.500000       5.500000       5.500000       5.500000       5.500000       5.500000       5.500000       5.500000    
   5.500000       5.500000       5.500000       5.500000       5.500000       5.500000       5.500000       5.500000       5.500000       5.500000    
   5.500000       5.500000       5.500000       5.500000       5.500000       5.500000       5.500000       5.500000       5.500000       5.500000    
   5.500000       5.500000       5.500000       5.500000       5.500000       5.500000       5.500000       5.500000       5.500000       5.500000    
   5.500000       5.500000       5.500000       5.500000       5.500000       5.500000       5.500000       1.000000    
   10.00000       5.500000       5.500000       5.500000       5.500000       5.500000       5.500000       5.500000       5.500000       5.500000    
   5.500000       5.500000       5.500000       5.500000       5.500000       5.500000       5.500000       5.500000       5.500000       5.500000    
   5.500000       5.500000       5.500000       5.500000       5.500000       5.500000       5.500000       5.500000       5.500000       5.500000    
   5.500000       5.500000       5.500000       5.500000       5.500000       5.500000       5.500000       5.500000       5.500000       5.500000    
   5.500000       5.500000       5.500000       5.500000       5.500000       5.500000       5.500000       5.500000       5.500000       5.500000    
   5.500000       5.500000       5.500000       5.500000       5.500000       5.500000       5.500000       5.500000       5.500000       5.500000    
   5.500000       5.500000       5.500000       5.500000       5.500000       5.500000       5.500000       5.500000       5.500000       5.500000    
   5.500000       5.500000       5.500000       5.500000       5.500000       5.500000       5.500000       5.500000       5.500000       5.500000    
   5.500000       5.500000       5.500000       5.500000       5.500000       5.500000       5.500000       5.500000       5.500000       5.500000    
   5.500000       5.500000       5.500000       5.500000       5.500000       5.500000       5.500000       5.500000       5.500000       5.500000    
   5.500000       5.500000       5.500000       5.500000       5.500000       5.500000       5.500000       1.000000    
   10.00000       5.500000       5.500000       5.500000       5.500000       5.500000       5.500000       5.500000       5.500000       5.500000    
   5.500000       5.500000       5.500000       5.500000       5.500000       5.500000       5.500000       5.500000       5.500000       5.500000    
   5.500000       5.500000       5.500000       5.500000       5.500000       5.500000       5.500000       5.500000       5.500000       5.500000    
   5.500000       5.500000       5.500000       5.500000       5.500000       5.500000       5.500000       5.500000       5.500000       5.500000    
   5.500000       5.500000       5.500000       5.500000       5.500000       5.500000       5.500000       5.500000       5.500000       5.500000    
   5.500000       5.500000       5.500000       5.500000       5.500000       5.500000       5.500000       5.500000       5.500000       5.500000    
   5.500000       5.500000       5.500000       5.500000       5.500000       5.500000       5.500000       5.500000       5.500000       5.500000    
   5.500000       5.500000       5.500000       5.500000       5.500000       5.500000       5.500000       5.500000       5.500000       5.500000    
   5.500000       5.500000       5.500000       5.500000       5.500000       5.500000       5.500000       5.500000       5.500000       5.500000    
   5.500000       5.500000       5.500000       5.500000       5.500000       5.500000       5.500000       5.500000       5.500000       5.500000    
   5.500000       5.500000       5.500000       5.500000       5.500000       5.500000       5.500000       1.000000    
   10.00000       5.500000       5.500000       5.500000       5.500000       5.500000       5.500000       5.500000       5.500000       5.500000    
   5.500000       5.500000       5.500000       5.500000       5.500000       5.500000       5.500000       5.500000       5.500000       5.500000    
   5.500000       5.500000       5.500000       5.500000       5.500000       5.500000       5.500000       5.500000       5.500000       5.500000    