# EXG input file, prepared by MF5to6 on 8/5/2016 at 18:32:02.

Begin Options
  PRINT_INPUT
  PRINT_FLOWS
  SAVE_FLOWS
  MVR6 FILEIN  PARENT_CHILD.mvr
  GNC6 FILEIN  PARENT_CHILD.gnc
End Options

Begin Dimensions
  NEXG  504
End Dimensions

Begin ExchangeData
  # left side, child layer 1
  1 20 22  1 1 1   1  4.625000000000000  .5138890000000000  1.000000000000000
  1 20 22  1 2 1   1  4.625000000000000  .5138890000000000  1.000000000000000
  1 20 22  1 3 1   1  4.625000000000000  .5138890000000000  1.000000000000000
  1 20 22  1 4 1   1  4.625000000000000  .5138890000000000  1.000000000000000
  1 20 22  1 5 1   1  4.625000000000000  .5138890000000000  1.000000000000000
  1 20 22  1 6 1   1  4.625000000000000  .5138890000000000  1.000000000000000
  1 20 22  1 7 1   1  4.625000000000000  .5138890000000000  1.000000000000000
  1 20 22  1 8 1   1  4.625000000000000  .5138890000000000  1.000000000000000
  1 20 22  1 9 1   1  4.625000000000000  .5138890000000000  1.000000000000000
  1 21 22  1 10 1   1  4.625000000000000  .5138890000000000  1.000000000000000
  1 21 22  1 11 1   1  4.625000000000000  .5138890000000000  1.000000000000000
  1 21 22  1 12 1   1  4.625000000000000  .5138890000000000  1.000000000000000
  1 21 22  1 13 1   1  4.625000000000000  .5138890000000000  1.000000000000000
  1 21 22  1 14 1   1  4.625000000000000  .5138890000000000  1.000000000000000
  1 21 22  1 15 1   1  4.625000000000000  .5138890000000000  1.000000000000000
  1 21 22  1 16 1   1  4.625000000000000  .5138890000000000  1.000000000000000
  1 21 22  1 17 1   1  4.625000000000000  .5138890000000000  1.000000000000000
  1 21 22  1 18 1   1  4.625000000000000  .5138890000000000  1.000000000000000
  1 22 22  1 19 1   1  4.625000000000000  .5138890000000000  1.000000000000000
  1 22 22  1 20 1   1  4.625000000000000  .5138890000000000  1.000000000000000
  1 22 22  1 21 1   1  4.625000000000000  .5138890000000000  1.000000000000000
  1 22 22  1 22 1   1  4.625000000000000  .5138890000000000  1.000000000000000
  1 22 22  1 23 1   1  4.625000000000000  .5138890000000000  1.000000000000000
  1 22 22  1 24 1   1  4.625000000000000  .5138890000000000  1.000000000000000
  1 22 22  1 25 1   1  4.625000000000000  .5138890000000000  1.000000000000000
  1 22 22  1 26 1   1  4.625000000000000  .5138890000000000  1.000000000000000
  1 22 22  1 27 1   1  4.625000000000000  .5138890000000000  1.000000000000000
  1 23 22  1 28 1   1  4.625000000000000  .5138890000000000  1.000000000000000
  1 23 22  1 29 1   1  4.625000000000000  .5138890000000000  1.000000000000000
  1 23 22  1 30 1   1  4.625000000000000  .5138890000000000  1.000000000000000
  1 23 22  1 31 1   1  4.625000000000000  .5138890000000000  1.000000000000000
  1 23 22  1 32 1   1  4.625000000000000  .5138890000000000  1.000000000000000
  1 23 22  1 33 1   1  4.625000000000000  .5138890000000000  1.000000000000000
  1 23 22  1 34 1   1  4.625000000000000  .5138890000000000  1.000000000000000
  1 23 22  1 35 1   1  4.625000000000000  .5138890000000000  1.000000000000000
  1 23 22  1 36 1   1  4.625000000000000  .5138890000000000  1.000000000000000
  1 24 22  1 37 1   1  4.625000000000000  .5138890000000000  1.000000000000000
  1 24 22  1 38 1   1  4.625000000000000  .5138890000000000  1.000000000000000
  1 24 22  1 39 1   1  4.625000000000000  .5138890000000000  1.000000000000000
  1 24 22  1 40 1   1  4.625000000000000  .5138890000000000  1.000000000000000
  1 24 22  1 41 1   1  4.625000000000000  .5138890000000000  1.000000000000000
  1 24 22  1 42 1   1  4.625000000000000  .5138890000000000  1.000000000000000
  1 24 22  1 43 1   1  4.625000000000000  .5138890000000000  1.000000000000000
  1 24 22  1 44 1   1  4.625000000000000  .5138890000000000  1.000000000000000
  1 24 22  1 45 1   1  4.625000000000000  .5138890000000000  1.000000000000000
  1 25 22  1 46 1   1  4.625000000000000  .5138890000000000  1.000000000000000
  1 25 22  1 47 1   1  4.625000000000000  .5138890000000000  1.000000000000000
  1 25 22  1 48 1   1  4.625000000000000  .5138890000000000  1.000000000000000
  1 25 22  1 49 1   1  4.625000000000000  .5138890000000000  1.000000000000000
  1 25 22  1 50 1   1  4.625000000000000  .5138890000000000  1.000000000000000
  1 25 22  1 51 1   1  4.625000000000000  .5138890000000000  1.000000000000000
  1 25 22  1 52 1   1  4.625000000000000  .5138890000000000  1.000000000000000
  1 25 22  1 53 1   1  4.625000000000000  .5138890000000000  1.000000000000000
  1 25 22  1 54 1   1  4.625000000000000  .5138890000000000  1.000000000000000
  1 26 22  1 55 1   1  4.625000000000000  .5138890000000000  1.000000000000000
  1 26 22  1 56 1   1  4.625000000000000  .5138890000000000  1.000000000000000
  1 26 22  1 57 1   1  4.625000000000000  .5138890000000000  1.000000000000000
  1 26 22  1 58 1   1  4.625000000000000  .5138890000000000  1.000000000000000
  1 26 22  1 59 1   1  4.625000000000000  .5138890000000000  1.000000000000000
  1 26 22  1 60 1   1  4.625000000000000  .5138890000000000  1.000000000000000
  1 26 22  1 61 1   1  4.625000000000000  .5138890000000000  1.000000000000000
  1 26 22  1 62 1   1  4.625000000000000  .5138890000000000  1.000000000000000
  1 26 22  1 63 1   1  4.625000000000000  .5138890000000000  1.000000000000000
  1 27 22  1 64 1   1  4.625000000000000  .5138890000000000  1.000000000000000
  1 27 22  1 65 1   1  4.625000000000000  .5138890000000000  1.000000000000000
  1 27 22  1 66 1   1  4.625000000000000  .5138890000000000  1.000000000000000
  1 27 22  1 67 1   1  4.625000000000000  .5138890000000000  1.000000000000000
  1 27 22  1 68 1   1  4.625000000000000  .5138890000000000  1.000000000000000
  1 27 22  1 69 1   1  4.625000000000000  .5138890000000000  1.000000000000000
  1 27 22  1 70 1   1  4.625000000000000  .5138890000000000  1.000000000000000
  1 27 22  1 71 1   1  4.625000000000000  .5138890000000000  1.000000000000000
  1 27 22  1 72 1   1  4.625000000000000  .5138890000000000  1.000000000000000
  1 28 22  1 73 1   1  4.625000000000000  .5138890000000000  1.000000000000000
  1 28 22  1 74 1   1  4.625000000000000  .5138890000000000  1.000000000000000
  1 28 22  1 75 1   1  4.625000000000000  .5138890000000000  1.000000000000000
  1 28 22  1 76 1   1  4.625000000000000  .5138890000000000  1.000000000000000
  1 28 22  1 77 1   1  4.625000000000000  .5138890000000000  1.000000000000000
  1 28 22  1 78 1   1  4.625000000000000  .5138890000000000  1.000000000000000
  1 28 22  1 79 1   1  4.625000000000000  .5138890000000000  1.000000000000000
  1 28 22  1 80 1   1  4.625000000000000  .5138890000000000  1.000000000000000
  1 28 22  1 81 1   1  4.625000000000000  .5138890000000000  1.000000000000000
  1 29 22  1 82 1   1  4.625000000000000  .5138890000000000  1.000000000000000
  1 29 22  1 83 1   1  4.625000000000000  .5138890000000000  1.000000000000000
  1 29 22  1 84 1   1  4.625000000000000  .5138890000000000  1.000000000000000
  1 29 22  1 85 1   1  4.625000000000000  .5138890000000000  1.000000000000000
  1 29 22  1 86 1   1  4.625000000000000  .5138890000000000  1.000000000000000
  1 29 22  1 87 1   1  4.625000000000000  .5138890000000000  1.000000000000000
  1 29 22  1 88 1   1  4.625000000000000  .5138890000000000  1.000000000000000
  1 29 22  1 89 1   1  4.625000000000000  .5138890000000000  1.000000000000000
  1 29 22  1 90 1   1  4.625000000000000  .5138890000000000  1.000000000000000
  1 30 22  1 91 1   1  4.625000000000000  .5138890000000000  1.000000000000000
  1 30 22  1 92 1   1  4.625000000000000  .5138890000000000  1.000000000000000
  1 30 22  1 93 1   1  4.625000000000000  .5138890000000000  1.000000000000000
  1 30 22  1 94 1   1  4.625000000000000  .5138890000000000  1.000000000000000
  1 30 22  1 95 1   1  4.625000000000000  .5138890000000000  1.000000000000000
  1 30 22  1 96 1   1  4.625000000000000  .5138890000000000  1.000000000000000
  1 30 22  1 97 1   1  4.625000000000000  .5138890000000000  1.000000000000000
  1 30 22  1 98 1   1  4.625000000000000  .5138890000000000  1.000000000000000
  1 30 22  1 99 1   1  4.625000000000000  .5138890000000000  1.000000000000000
  1 31 22  1 100 1   1  4.625000000000000  .5138890000000000  1.000000000000000
  1 31 22  1 101 1   1  4.625000000000000  .5138890000000000  1.000000000000000
  1 31 22  1 102 1   1  4.625000000000000  .5138890000000000  1.000000000000000
  1 31 22  1 103 1   1  4.625000000000000  .5138890000000000  1.000000000000000
  1 31 22  1 104 1   1  4.625000000000000  .5138890000000000  1.000000000000000
  1 31 22  1 105 1   1  4.625000000000000  .5138890000000000  1.000000000000000
  1 31 22  1 106 1   1  4.625000000000000  .5138890000000000  1.000000000000000
  1 31 22  1 107 1   1  4.625000000000000  .5138890000000000  1.000000000000000
  1 31 22  1 108 1   1  4.625000000000000  .5138890000000000  1.000000000000000
  # right side, child layer 1
  1 20 39  1 1 144   1  4.625000000000000  .5138890000000000  1.000000000000000
  1 20 39  1 2 144   1  4.625000000000000  .5138890000000000  1.000000000000000
  1 20 39  1 3 144   1  4.625000000000000  .5138890000000000  1.000000000000000
  1 20 39  1 4 144   1  4.625000000000000  .5138890000000000  1.000000000000000
  1 20 39  1 5 144   1  4.625000000000000  .5138890000000000  1.000000000000000
  1 20 39  1 6 144   1  4.625000000000000  .5138890000000000  1.000000000000000
  1 20 39  1 7 144   1  4.625000000000000  .5138890000000000  1.000000000000000
  1 20 39  1 8 144   1  4.625000000000000  .5138890000000000  1.000000000000000
  1 20 39  1 9 144   1  4.625000000000000  .5138890000000000  1.000000000000000
  1 21 39  1 10 144   1  4.625000000000000  .5138890000000000  1.000000000000000
  1 21 39  1 11 144   1  4.625000000000000  .5138890000000000  1.000000000000000
  1 21 39  1 12 144   1  4.625000000000000  .5138890000000000  1.000000000000000
  1 21 39  1 13 144   1  4.625000000000000  .5138890000000000  1.000000000000000
  1 21 39  1 14 144   1  4.625000000000000  .5138890000000000  1.000000000000000
  1 21 39  1 15 144   1  4.625000000000000  .5138890000000000  1.000000000000000
  1 21 39  1 16 144   1  4.625000000000000  .5138890000000000  1.000000000000000
  1 21 39  1 17 144   1  4.625000000000000  .5138890000000000  1.000000000000000
  1 21 39  1 18 144   1  4.625000000000000  .5138890000000000  1.000000000000000
  1 22 39  1 19 144   1  4.625000000000000  .5138890000000000  1.000000000000000
  1 22 39  1 20 144   1  4.625000000000000  .5138890000000000  1.000000000000000
  1 22 39  1 21 144   1  4.625000000000000  .5138890000000000  1.000000000000000
  1 22 39  1 22 144   1  4.625000000000000  .5138890000000000  1.000000000000000
  1 22 39  1 23 144   1  4.625000000000000  .5138890000000000  1.000000000000000
  1 22 39  1 24 144   1  4.625000000000000  .5138890000000000  1.000000000000000
  1 22 39  1 25 144   1  4.625000000000000  .5138890000000000  1.000000000000000
  1 22 39  1 26 144   1  4.625000000000000  .5138890000000000  1.000000000000000
  1 22 39  1 27 144   1  4.625000000000000  .5138890000000000  1.000000000000000
  1 23 39  1 28 144   1  4.625000000000000  .5138890000000000  1.000000000000000
  1 23 39  1 29 144   1  4.625000000000000  .5138890000000000  1.000000000000000
  1 23 39  1 30 144   1  4.625000000000000  .5138890000000000  1.000000000000000
  1 23 39  1 31 144   1  4.625000000000000  .5138890000000000  1.000000000000000
  1 23 39  1 32 144   1  4.625000000000000  .5138890000000000  1.000000000000000
  1 23 39  1 33 144   1  4.625000000000000  .5138890000000000  1.000000000000000
  1 23 39  1 34 144   1  4.625000000000000  .5138890000000000  1.000000000000000
  1 23 39  1 35 144   1  4.625000000000000  .5138890000000000  1.000000000000000
  1 23 39  1 36 144   1  4.625000000000000  .5138890000000000  1.000000000000000
  1 24 39  1 37 144   1  4.625000000000000  .5138890000000000  1.000000000000000
  1 24 39  1 38 144   1  4.625000000000000  .5138890000000000  1.000000000000000
  1 24 39  1 39 144   1  4.625000000000000  .5138890000000000  1.000000000000000
  1 24 39  1 40 144   1  4.625000000000000  .5138890000000000  1.000000000000000
  1 24 39  1 41 144   1  4.625000000000000  .5138890000000000  1.000000000000000
  1 24 39  1 42 144   1  4.625000000000000  .5138890000000000  1.000000000000000
  1 24 39  1 43 144   1  4.625000000000000  .5138890000000000  1.000000000000000
  1 24 39  1 44 144   1  4.625000000000000  .5138890000000000  1.000000000000000
  1 24 39  1 45 144   1  4.625000000000000  .5138890000000000  1.000000000000000
  1 25 39  1 46 144   1  4.625000000000000  .5138890000000000  1.000000000000000
  1 25 39  1 47 144   1  4.625000000000000  .5138890000000000  1.000000000000000
  1 25 39  1 48 144   1  4.625000000000000  .5138890000000000  1.000000000000000
  1 25 39  1 49 144   1  4.625000000000000  .5138890000000000  1.000000000000000
  1 25 39  1 50 144   1  4.625000000000000  .5138890000000000  1.000000000000000
  1 25 39  1 51 144   1  4.625000000000000  .5138890000000000  1.000000000000000
  1 25 39  1 52 144   1  4.625000000000000  .5138890000000000  1.000000000000000
  1 25 39  1 53 144   1  4.625000000000000  .5138890000000000  1.000000000000000
  1 25 39  1 54 144   1  4.625000000000000  .5138890000000000  1.000000000000000
  1 26 39  1 55 144   1  4.625000000000000  .5138890000000000  1.000000000000000
  1 26 39  1 56 144   1  4.625000000000000  .5138890000000000  1.000000000000000
  1 26 39  1 57 144   1  4.625000000000000  .5138890000000000  1.000000000000000
  1 26 39  1 58 144   1  4.625000000000000  .5138890000000000  1.000000000000000
  1 26 39  1 59 144   1  4.625000000000000  .5138890000000000  1.000000000000000
  1 26 39  1 60 144   1  4.625000000000000  .5138890000000000  1.000000000000000
  1 26 39  1 61 144   1  4.625000000000000  .5138890000000000  1.000000000000000
  1 26 39  1 62 144   1  4.625000000000000  .5138890000000000  1.000000000000000
  1 26 39  1 63 144   1  4.625000000000000  .5138890000000000  1.000000000000000
  1 27 39  1 64 144   1  4.625000000000000  .5138890000000000  1.000000000000000
  1 27 39  1 65 144   1  4.625000000000000  .5138890000000000  1.000000000000000
  1 27 39  1 66 144   1  4.625000000000000  .5138890000000000  1.000000000000000
  1 27 39  1 67 144   1  4.625000000000000  .5138890000000000  1.000000000000000
  1 27 39  1 68 144   1  4.625000000000000  .5138890000000000  1.000000000000000
  1 27 39  1 69 144   1  4.625000000000000  .5138890000000000  1.000000000000000
  1 27 39  1 70 144   1  4.625000000000000  .5138890000000000  1.000000000000000
  1 27 39  1 71 144   1  4.625000000000000  .5138890000000000  1.000000000000000
  1 27 39  1 72 144   1  4.625000000000000  .5138890000000000  1.000000000000000
  1 28 39  1 73 144   1  4.625000000000000  .5138890000000000  1.000000000000000
  1 28 39  1 74 144   1  4.625000000000000  .5138890000000000  1.000000000000000
  1 28 39  1 75 144   1  4.625000000000000  .5138890000000000  1.000000000000000
  1 28 39  1 76 144   1  4.625000000000000  .5138890000000000  1.000000000000000
  1 28 39  1 77 144   1  4.625000000000000  .5138890000000000  1.000000000000000
  1 28 39  1 78 144   1  4.625000000000000  .5138890000000000  1.000000000000000
  1 28 39  1 79 144   1  4.625000000000000  .5138890000000000  1.000000000000000
  1 28 39  1 80 144   1  4.625000000000000  .5138890000000000  1.000000000000000
  1 28 39  1 81 144   1  4.625000000000000  .5138890000000000  1.000000000000000
  1 29 39  1 82 144   1  4.625000000000000  .5138890000000000  1.000000000000000
  1 29 39  1 83 144   1  4.625000000000000  .5138890000000000  1.000000000000000
  1 29 39  1 84 144   1  4.625000000000000  .5138890000000000  1.000000000000000
  1 29 39  1 85 144   1  4.625000000000000  .5138890000000000  1.000000000000000
  1 29 39  1 86 144   1  4.625000000000000  .5138890000000000  1.000000000000000
  1 29 39  1 87 144   1  4.625000000000000  .5138890000000000  1.000000000000000
  1 29 39  1 88 144   1  4.625000000000000  .5138890000000000  1.000000000000000
  1 29 39  1 89 144   1  4.625000000000000  .5138890000000000  1.000000000000000
  1 29 39  1 90 144   1  4.625000000000000  .5138890000000000  1.000000000000000
  1 30 39  1 91 144   1  4.625000000000000  .5138890000000000  1.000000000000000
  1 30 39  1 92 144   1  4.625000000000000  .5138890000000000  1.000000000000000
  1 30 39  1 93 144   1  4.625000000000000  .5138890000000000  1.000000000000000
  1 30 39  1 94 144   1  4.625000000000000  .5138890000000000  1.000000000000000
  1 30 39  1 95 144   1  4.625000000000000  .5138890000000000  1.000000000000000
  1 30 39  1 96 144   1  4.625000000000000  .5138890000000000  1.000000000000000
  1 30 39  1 97 144   1  4.625000000000000  .5138890000000000  1.000000000000000
  1 30 39  1 98 144   1  4.625000000000000  .5138890000000000  1.000000000000000
  1 30 39  1 99 144   1  4.625000000000000  .5138890000000000  1.000000000000000
  1 31 39  1 100 144   1  4.625000000000000  .5138890000000000  1.000000000000000
  1 31 39  1 101 144   1  4.625000000000000  .5138890000000000  1.000000000000000
  1 31 39  1 102 144   1  4.625000000000000  .5138890000000000  1.000000000000000
  1 31 39  1 103 144   1  4.625000000000000  .5138890000000000  1.000000000000000
  1 31 39  1 104 144   1  4.625000000000000  .5138890000000000  1.000000000000000
  1 31 39  1 105 144   1  4.625000000000000  .5138890000000000  1.000000000000000
  1 31 39  1 106 144   1  4.625000000000000  .5138890000000000  1.000000000000000
  1 31 39  1 107 144   1  4.625000000000000  .5138890000000000  1.000000000000000
  1 31 39  1 108 144   1  4.625000000000000  .5138890000000000  1.000000000000000
  # back, child layer 1
  1 19 23  1 1 1   1  4.500000000000000  .5000000000000000  1.027778000000000
  1 19 23  1 1 2   1  4.500000000000000  .5000000000000000  1.027778000000000
  1 19 23  1 1 3   1  4.500000000000000  .5000000000000000  1.027778000000000
  1 19 23  1 1 4   1  4.500000000000000  .5000000000000000  1.027778000000000
  1 19 23  1 1 5   1  4.500000000000000  .5000000000000000  1.027778000000000
  1 19 23  1 1 6   1  4.500000000000000  .5000000000000000  1.027778000000000
  1 19 23  1 1 7   1  4.500000000000000  .5000000000000000  1.027778000000000
  1 19 23  1 1 8   1  4.500000000000000  .5000000000000000  1.027778000000000
  1 19 23  1 1 9   1  4.500000000000000  .5000000000000000  1.027778000000000
  1 19 24  1 1 10   1  4.500000000000000  .5000000000000000  1.027778000000000
  1 19 24  1 1 11   1  4.500000000000000  .5000000000000000  1.027778000000000
  1 19 24  1 1 12   1  4.500000000000000  .5000000000000000  1.027778000000000
  1 19 24  1 1 13   1  4.500000000000000  .5000000000000000  1.027778000000000
  1 19 24  1 1 14   1  4.500000000000000  .5000000000000000  1.027778000000000
  1 19 24  1 1 15   1  4.500000000000000  .5000000000000000  1.027778000000000
  1 19 24  1 1 16   1  4.500000000000000  .5000000000000000  1.027778000000000
  1 19 24  1 1 17   1  4.500000000000000  .5000000000000000  1.027778000000000
  1 19 24  1 1 18   1  4.500000000000000  .5000000000000000  1.027778000000000
  1 19 25  1 1 19   1  4.500000000000000  .5000000000000000  1.027778000000000
  1 19 25  1 1 20   1  4.500000000000000  .5000000000000000  1.027778000000000
  1 19 25  1 1 21   1  4.500000000000000  .5000000000000000  1.027778000000000
  1 19 25  1 1 22   1  4.500000000000000  .5000000000000000  1.027778000000000
  1 19 25  1 1 23   1  4.500000000000000  .5000000000000000  1.027778000000000
  1 19 25  1 1 24   1  4.500000000000000  .5000000000000000  1.027778000000000
  1 19 25  1 1 25   1  4.500000000000000  .5000000000000000  1.027778000000000
  1 19 25  1 1 26   1  4.500000000000000  .5000000000000000  1.027778000000000
  1 19 25  1 1 27   1  4.500000000000000  .5000000000000000  1.027778000000000
  1 19 26  1 1 28   1  4.500000000000000  .5000000000000000  1.027778000000000
  1 19 26  1 1 29   1  4.500000000000000  .5000000000000000  1.027778000000000
  1 19 26  1 1 30   1  4.500000000000000  .5000000000000000  1.027778000000000
  1 19 26  1 1 31   1  4.500000000000000  .5000000000000000  1.027778000000000
  1 19 26  1 1 32   1  4.500000000000000  .5000000000000000  1.027778000000000
  1 19 26  1 1 33   1  4.500000000000000  .5000000000000000  1.027778000000000
  1 19 26  1 1 34   1  4.500000000000000  .5000000000000000  1.027778000000000
  1 19 26  1 1 35   1  4.500000000000000  .5000000000000000  1.027778000000000
  1 19 26  1 1 36   1  4.500000000000000  .5000000000000000  1.027778000000000
  1 19 27  1 1 37   1  4.500000000000000  .5000000000000000  1.027778000000000
  1 19 27  1 1 38   1  4.500000000000000  .5000000000000000  1.027778000000000
  1 19 27  1 1 39   1  4.500000000000000  .5000000000000000  1.027778000000000
  1 19 27  1 1 40   1  4.500000000000000  .5000000000000000  1.027778000000000
  1 19 27  1 1 41   1  4.500000000000000  .5000000000000000  1.027778000000000
  1 19 27  1 1 42   1  4.500000000000000  .5000000000000000  1.027778000000000
  1 19 27  1 1 43   1  4.500000000000000  .5000000000000000  1.027778000000000
  1 19 27  1 1 44   1  4.500000000000000  .5000000000000000  1.027778000000000
  1 19 27  1 1 45   1  4.500000000000000  .5000000000000000  1.027778000000000
  1 19 28  1 1 46   1  4.500000000000000  .5000000000000000  1.027778000000000
  1 19 28  1 1 47   1  4.500000000000000  .5000000000000000  1.027778000000000
  1 19 28  1 1 48   1  4.500000000000000  .5000000000000000  1.027778000000000
  1 19 28  1 1 49   1  4.500000000000000  .5000000000000000  1.027778000000000
  1 19 28  1 1 50   1  4.500000000000000  .5000000000000000  1.027778000000000
  1 19 28  1 1 51   1  4.500000000000000  .5000000000000000  1.027778000000000
  1 19 28  1 1 52   1  4.500000000000000  .5000000000000000  1.027778000000000
  1 19 28  1 1 53   1  4.500000000000000  .5000000000000000  1.027778000000000
  1 19 28  1 1 54   1  4.500000000000000  .5000000000000000  1.027778000000000
  1 19 29  1 1 55   1  4.500000000000000  .5000000000000000  1.027778000000000
  1 19 29  1 1 56   1  4.500000000000000  .5000000000000000  1.027778000000000
  1 19 29  1 1 57   1  4.500000000000000  .5000000000000000  1.027778000000000
  1 19 29  1 1 58   1  4.500000000000000  .5000000000000000  1.027778000000000
  1 19 29  1 1 59   1  4.500000000000000  .5000000000000000  1.027778000000000
  1 19 29  1 1 60   1  4.500000000000000  .5000000000000000  1.027778000000000
  1 19 29  1 1 61   1  4.500000000000000  .5000000000000000  1.027778000000000
  1 19 29  1 1 62   1  4.500000000000000  .5000000000000000  1.027778000000000
  1 19 29  1 1 63   1  4.500000000000000  .5000000000000000  1.027778000000000
  1 19 30  1 1 64   1  4.500000000000000  .5000000000000000  1.027778000000000
  1 19 30  1 1 65   1  4.500000000000000  .5000000000000000  1.027778000000000
  1 19 30  1 1 66   1  4.500000000000000  .5000000000000000  1.027778000000000
  1 19 30  1 1 67   1  4.500000000000000  .5000000000000000  1.027778000000000
  1 19 30  1 1 68   1  4.500000000000000  .5000000000000000  1.027778000000000
  1 19 30  1 1 69   1  4.500000000000000  .5000000000000000  1.027778000000000
  1 19 30  1 1 70   1  4.500000000000000  .5000000000000000  1.027778000000000
  1 19 30  1 1 71   1  4.500000000000000  .5000000000000000  1.027778000000000
  1 19 30  1 1 72   1  4.500000000000000  .5000000000000000  1.027778000000000
  1 19 31  1 1 73   1  4.500000000000000  .5000000000000000  1.027778000000000
  1 19 31  1 1 74   1  4.500000000000000  .5000000000000000  1.027778000000000
  1 19 31  1 1 75   1  4.500000000000000  .5000000000000000  1.027778000000000
  1 19 31  1 1 76   1  4.500000000000000  .5000000000000000  1.027778000000000
  1 19 31  1 1 77   1  4.500000000000000  .5000000000000000  1.027778000000000
  1 19 31  1 1 78   1  4.500000000000000  .5000000000000000  1.027778000000000
  1 19 31  1 1 79   1  4.500000000000000  .5000000000000000  1.027778000000000
  1 19 31  1 1 80   1  4.500000000000000  .5000000000000000  1.027778000000000
  1 19 31  1 1 81   1  4.500000000000000  .5000000000000000  1.027778000000000
  1 19 32  1 1 82   1  4.500000000000000  .5000000000000000  1.027778000000000
  1 19 32  1 1 83   1  4.500000000000000  .5000000000000000  1.027778000000000
  1 19 32  1 1 84   1  4.500000000000000  .5000000000000000  1.027778000000000
  1 19 32  1 1 85   1  4.500000000000000  .5000000000000000  1.027778000000000
  1 19 32  1 1 86   1  4.500000000000000  .5000000000000000  1.027778000000000
  1 19 32  1 1 87   1  4.500000000000000  .5000000000000000  1.027778000000000
  1 19 32  1 1 88   1  4.500000000000000  .5000000000000000  1.027778000000000
  1 19 32  1 1 89   1  4.500000000000000  .5000000000000000  1.027778000000000
  1 19 32  1 1 90   1  4.500000000000000  .5000000000000000  1.027778000000000
  1 19 33  1 1 91   1  4.500000000000000  .5000000000000000  1.027778000000000
  1 19 33  1 1 92   1  4.500000000000000  .5000000000000000  1.027778000000000
  1 19 33  1 1 93   1  4.500000000000000  .5000000000000000  1.027778000000000
  1 19 33  1 1 94   1  4.500000000000000  .5000000000000000  1.027778000000000
  1 19 33  1 1 95   1  4.500000000000000  .5000000000000000  1.027778000000000
  1 19 33  1 1 96   1  4.500000000000000  .5000000000000000  1.027778000000000
  1 19 33  1 1 97   1  4.500000000000000  .5000000000000000  1.027778000000000
  1 19 33  1 1 98   1  4.500000000000000  .5000000000000000  1.027778000000000
  1 19 33  1 1 99   1  4.500000000000000  .5000000000000000  1.027778000000000
  1 19 34  1 1 100   1  4.500000000000000  .5000000000000000  1.027778000000000
  1 19 34  1 1 101   1  4.500000000000000  .5000000000000000  1.027778000000000
  1 19 34  1 1 102   1  4.500000000000000  .5000000000000000  1.027778000000000
  1 19 34  1 1 103   1  4.500000000000000  .5000000000000000  1.027778000000000
  1 19 34  1 1 104   1  4.500000000000000  .5000000000000000  1.027778000000000
  1 19 34  1 1 105   1  4.500000000000000  .5000000000000000  1.027778000000000
  1 19 34  1 1 106   1  4.500000000000000  .5000000000000000  1.027778000000000
  1 19 34  1 1 107   1  4.500000000000000  .5000000000000000  1.027778000000000
  1 19 34  1 1 108   1  4.500000000000000  .5000000000000000  1.027778000000000
  1 19 35  1 1 109   1  4.500000000000000  .5000000000000000  1.027778000000000
  1 19 35  1 1 110   1  4.500000000000000  .5000000000000000  1.027778000000000
  1 19 35  1 1 111   1  4.500000000000000  .5000000000000000  1.027778000000000
  1 19 35  1 1 112   1  4.500000000000000  .5000000000000000  1.027778000000000
  1 19 35  1 1 113   1  4.500000000000000  .5000000000000000  1.027778000000000
  1 19 35  1 1 114   1  4.500000000000000  .5000000000000000  1.027778000000000
  1 19 35  1 1 115   1  4.500000000000000  .5000000000000000  1.027778000000000
  1 19 35  1 1 116   1  4.500000000000000  .5000000000000000  1.027778000000000
  1 19 35  1 1 117   1  4.500000000000000  .5000000000000000  1.027778000000000
  1 19 36  1 1 118   1  4.500000000000000  .5000000000000000  1.027778000000000
  1 19 36  1 1 119   1  4.500000000000000  .5000000000000000  1.027778000000000
  1 19 36  1 1 120   1  4.500000000000000  .5000000000000000  1.027778000000000
  1 19 36  1 1 121   1  4.500000000000000  .5000000000000000  1.027778000000000
  1 19 36  1 1 122   1  4.500000000000000  .5000000000000000  1.027778000000000
  1 19 36  1 1 123   1  4.500000000000000  .5000000000000000  1.027778000000000
  1 19 36  1 1 124   1  4.500000000000000  .5000000000000000  1.027778000000000
  1 19 36  1 1 125   1  4.500000000000000  .5000000000000000  1.027778000000000
  1 19 36  1 1 126   1  4.500000000000000  .5000000000000000  1.027778000000000
  1 19 37  1 1 127   1  4.500000000000000  .5000000000000000  1.027778000000000
  1 19 37  1 1 128   1  4.500000000000000  .5000000000000000  1.027778000000000
  1 19 37  1 1 129   1  4.500000000000000  .5000000000000000  1.027778000000000
  1 19 37  1 1 130   1  4.500000000000000  .5000000000000000  1.027778000000000
  1 19 37  1 1 131   1  4.500000000000000  .5000000000000000  1.027778000000000
  1 19 37  1 1 132   1  4.500000000000000  .5000000000000000  1.027778000000000
  1 19 37  1 1 133   1  4.500000000000000  .5000000000000000  1.027778000000000
  1 19 37  1 1 134   1  4.500000000000000  .5000000000000000  1.027778000000000
  1 19 37  1 1 135   1  4.500000000000000  .5000000000000000  1.027778000000000
  1 19 38  1 1 136   1  4.500000000000000  .5000000000000000  1.027778000000000
  1 19 38  1 1 137   1  4.500000000000000  .5000000000000000  1.027778000000000
  1 19 38  1 1 138   1  4.500000000000000  .5000000000000000  1.027778000000000
  1 19 38  1 1 139   1  4.500000000000000  .5000000000000000  1.027778000000000
  1 19 38  1 1 140   1  4.500000000000000  .5000000000000000  1.027778000000000
  1 19 38  1 1 141   1  4.500000000000000  .5000000000000000  1.027778000000000
  1 19 38  1 1 142   1  4.500000000000000  .5000000000000000  1.027778000000000
  1 19 38  1 1 143   1  4.500000000000000  .5000000000000000  1.027778000000000
  1 19 38  1 1 144   1  4.500000000000000  .5000000000000000  1.027778000000000
  # front, child layer 1
  1 32 23  1 108 1   1  4.500000000000000  .5000000000000000  1.027778000000000
  1 32 23  1 108 2   1  4.500000000000000  .5000000000000000  1.027778000000000
  1 32 23  1 108 3   1  4.500000000000000  .5000000000000000  1.027778000000000
  1 32 23  1 108 4   1  4.500000000000000  .5000000000000000  1.027778000000000
  1 32 23  1 108 5   1  4.500000000000000  .5000000000000000  1.027778000000000
  1 32 23  1 108 6   1  4.500000000000000  .5000000000000000  1.027778000000000
  1 32 23  1 108 7   1  4.500000000000000  .5000000000000000  1.027778000000000
  1 32 23  1 108 8   1  4.500000000000000  .5000000000000000  1.027778000000000
  1 32 23  1 108 9   1  4.500000000000000  .5000000000000000  1.027778000000000
  1 32 24  1 108 10   1  4.500000000000000  .5000000000000000  1.027778000000000
  1 32 24  1 108 11   1  4.500000000000000  .5000000000000000  1.027778000000000