# GNC input file, prepared by MF5to6 on 8/5/2016 at 18:32:02.

Begin Options
  Print_Input
  Print_Flows
End Options

Begin Dimensions
  NUMGNC  504
  NUMALPHAJ  1
End Dimensions

Begin GncData
  # left side, child layer 1
  1 20 22  1 1 1  1 19 22   .4444444444444444
  1 20 22  1 2 1  1 19 22   .3333333333333333
  1 20 22  1 3 1  1 19 22   .2222222222222222
  1 20 22  1 4 1  1 19 22   .1111111111111111
  1 20 22  1 5 1  0 0 0   .000000000000000
  1 20 22  1 6 1  1 21 22   .1111111111111111
  1 20 22  1 7 1  1 21 22   .2222222222222222
  1 20 22  1 8 1  1 21 22   .3333333333333333
  1 20 22  1 9 1  1 21 22   .4444444444444444
  1 21 22  1 10 1  1 20 22   .4444444444444444
  1 21 22  1 11 1  1 20 22   .3333333333333333
  1 21 22  1 12 1  1 20 22   .2222222222222222
  1 21 22  1 13 1  1 20 22   .1111111111111111
  1 21 22  1 14 1  0 0 0   .000000000000000
  1 21 22  1 15 1  1 22 22   .1111111111111111
  1 21 22  1 16 1  1 22 22   .2222222222222222
  1 21 22  1 17 1  1 22 22   .3333333333333333
  1 21 22  1 18 1  1 22 22   .4444444444444444
  1 22 22  1 19 1  1 21 22   .4444444444444444
  1 22 22  1 20 1  1 21 22   .3333333333333333
  1 22 22  1 21 1  1 21 22   .2222222222222222
  1 22 22  1 22 1  1 21 22   .1111111111111111
  1 22 22  1 23 1  0 0 0   .000000000000000
  1 22 22  1 24 1  1 23 22   .1111111111111111
  1 22 22  1 25 1  1 23 22   .2222222222222222
  1 22 22  1 26 1  1 23 22   .3333333333333333
  1 22 22  1 27 1  1 23 22   .4444444444444444
  1 23 22  1 28 1  1 22 22   .4444444444444444
  1 23 22  1 29 1  1 22 22   .3333333333333333
  1 23 22  1 30 1  1 22 22   .2222222222222222
  1 23 22  1 31 1  1 22 22   .1111111111111111
  1 23 22  1 32 1  0 0 0   .000000000000000
  1 23 22  1 33 1  1 24 22   .1111111111111111
  1 23 22  1 34 1  1 24 22   .2222222222222222
  1 23 22  1 35 1  1 24 22   .3333333333333333
  1 23 22  1 36 1  1 24 22   .4444444444444444
  1 24 22  1 37 1  1 23 22   .4444444444444444
  1 24 22  1 38 1  1 23 22   .3333333333333333
  1 24 22  1 39 1  1 23 22   .2222222222222222
  1 24 22  1 40 1  1 23 22   .1111111111111111
  1 24 22  1 41 1  0 0 0   .000000000000000
  1 24 22  1 42 1  1 25 22   .1111111111111111
  1 24 22  1 43 1  1 25 22   .2222222222222222
  1 24 22  1 44 1  1 25 22   .3333333333333333
  1 24 22  1 45 1  1 25 22   .4444444444444444
  1 25 22  1 46 1  1 24 22   .4444444444444444
  1 25 22  1 47 1  1 24 22   .3333333333333333
  1 25 22  1 48 1  1 24 22   .2222222222222222
  1 25 22  1 49 1  1 24 22   .1111111111111111
  1 25 22  1 50 1  0 0 0   .000000000000000
  1 25 22  1 51 1  1 26 22   .1111111111111111
  1 25 22  1 52 1  1 26 22   .2222222222222222
  1 25 22  1 53 1  1 26 22   .3333333333333333
  1 25 22  1 54 1  1 26 22   .4444444444444444
  1 26 22  1 55 1  1 25 22   .4444444444444444
  1 26 22  1 56 1  1 25 22   .3333333333333333
  1 26 22  1 57 1  1 25 22   .2222222222222222
  1 26 22  1 58 1  1 25 22   .1111111111111111
  1 26 22  1 59 1  0 0 0   .000000000000000
  1 26 22  1 60 1  1 27 22   .1111111111111111
  1 26 22  1 61 1  1 27 22   .2222222222222222
  1 26 22  1 62 1  1 27 22   .3333333333333333
  1 26 22  1 63 1  1 27 22   .4444444444444444
  1 27 22  1 64 1  1 26 22   .4444444444444444
  1 27 22  1 65 1  1 26 22   .3333333333333333
  1 27 22  1 66 1  1 26 22   .2222222222222222
  1 27 22  1 67 1  1 26 22   .1111111111111111
  1 27 22  1 68 1  0 0 0   .000000000000000
  1 27 22  1 69 1  1 28 22   .1111111111111111
  1 27 22  1 70 1  1 28 22   .2222222222222222
  1 27 22  1 71 1  1 28 22   .3333333333333333
  1 27 22  1 72 1  1 28 22   .4444444444444444
  1 28 22  1 73 1  1 27 22   .4444444444444444
  1 28 22  1 74 1  1 27 22   .3333333333333333
  1 28 22  1 75 1  1 27 22   .2222222222222222
  1 28 22  1 76 1  1 27 22   .1111111111111111
  1 28 22  1 77 1  0 0 0   .000000000000000
  1 28 22  1 78 1  1 29 22   .1111111111111111
  1 28 22  1 79 1  1 29 22   .2222222222222222
  1 28 22  1 80 1  1 29 22   .3333333333333333
  1 28 22  1 81 1  1 29 22   .4444444444444444
  1 29 22  1 82 1  1 28 22   .4444444444444444
  1 29 22  1 83 1  1 28 22   .3333333333333333
  1 29 22  1 84 1  1 28 22   .2222222222222222
  1 29 22  1 85 1  1 28 22   .1111111111111111
  1 29 22  1 86 1  0 0 0   .000000000000000
  1 29 22  1 87 1  1 30 22   .1111111111111111
  1 29 22  1 88 1  1 30 22   .2222222222222222
  1 29 22  1 89 1  1 30 22   .3333333333333333
  1 29 22  1 90 1  1 30 22   .4444444444444444
  1 30 22  1 91 1  1 29 22   .4444444444444444
  1 30 22  1 92 1  1 29 22   .3333333333333333
  1 30 22  1 93 1  1 29 22   .2222222222222222
  1 30 22  1 94 1  1 29 22   .1111111111111111
  1 30 22  1 95 1  0 0 0   .000000000000000
  1 30 22  1 96 1  1 31 22   .1111111111111111
  1 30 22  1 97 1  1 31 22   .2222222222222222
  1 30 22  1 98 1  1 31 22   .3333333333333333
  1 30 22  1 99 1  1 31 22   .4444444444444444
  1 31 22  1 100 1  1 30 22   .4444444444444444
  1 31 22  1 101 1  1 30 22   .3333333333333333
  1 31 22  1 102 1  1 30 22   .2222222222222222
  1 31 22  1 103 1  1 30 22   .1111111111111111
  1 31 22  1 104 1  0 0 0   .000000000000000
  1 31 22  1 105 1  1 32 22   .1111111111111111
  1 31 22  1 106 1  1 32 22   .2222222222222222
  1 31 22  1 107 1  1 32 22   .3333333333333333
  1 31 22  1 108 1  1 32 22   .4444444444444444
  # right side, child layer 1
  1 20 39  1 1 144  1 19 39   .4444444444444444
  1 20 39  1 2 144  1 19 39   .3333333333333333
  1 20 39  1 3 144  1 19 39   .2222222222222222
  1 20 39  1 4 144  1 19 39   .1111111111111111
  1 20 39  1 5 144  0 0 0   .000000000000000
  1 20 39  1 6 144  1 21 39   .1111111111111111
  1 20 39  1 7 144  1 21 39   .2222222222222222
  1 20 39  1 8 144  1 21 39   .3333333333333333
  1 20 39  1 9 144  1 21 39   .4444444444444444
  1 21 39  1 10 144  1 20 39   .4444444444444444
  1 21 39  1 11 144  1 20 39   .3333333333333333
  1 21 39  1 12 144  1 20 39   .2222222222222222
  1 21 39  1 13 144  1 20 39   .1111111111111111
  1 21 39  1 14 144  0 0 0   .000000000000000
  1 21 39  1 15 144  1 22 39   .1111111111111111
  1 21 39  1 16 144  1 22 39   .2222222222222222
  1 21 39  1 17 144  1 22 39   .3333333333333333
  1 21 39  1 18 144  1 22 39   .4444444444444444
  1 22 39  1 19 144  1 21 39   .4444444444444444
  1 22 39  1 20 144  1 21 39   .3333333333333333
  1 22 39  1 21 144  1 21 39   .2222222222222222
  1 22 39  1 22 144  1 21 39   .1111111111111111
  1 22 39  1 23 144  0 0 0   .000000000000000
  1 22 39  1 24 144  1 23 39   .1111111111111111
  1 22 39  1 25 144  1 23 39   .2222222222222222
  1 22 39  1 26 144  1 23 39   .3333333333333333
  1 22 39  1 27 144  1 23 39   .4444444444444444
  1 23 39  1 28 144  1 22 39   .4444444444444444
  1 23 39  1 29 144  1 22 39   .3333333333333333
  1 23 39  1 30 144  1 22 39   .2222222222222222
  1 23 39  1 31 144  1 22 39   .1111111111111111
  1 23 39  1 32 144  0 0 0   .000000000000000
  1 23 39  1 33 144  1 24 39   .1111111111111111
  1 23 39  1 34 144  1 24 39   .2222222222222222
  1 23 39  1 35 144  1 24 39   .3333333333333333
  1 23 39  1 36 144  1 24 39   .4444444444444444
  1 24 39  1 37 144  1 23 39   .4444444444444444
  1 24 39  1 38 144  1 23 39   .3333333333333333
  1 24 39  1 39 144  1 23 39   .2222222222222222
  1 24 39  1 40 144  1 23 39   .1111111111111111
  1 24 39  1 41 144  0 0 0   .000000000000000
  1 24 39  1 42 144  1 25 39   .1111111111111111
  1 24 39  1 43 144  1 25 39   .2222222222222222
  1 24 39  1 44 144  1 25 39   .3333333333333333
  1 24 39  1 45 144  1 25 39   .4444444444444444
  1 25 39  1 46 144  1 24 39   .4444444444444444
  1 25 39  1 47 144  1 24 39   .3333333333333333
  1 25 39  1 48 144  1 24 39   .2222222222222222
  1 25 39  1 49 144  1 24 39   .1111111111111111
  1 25 39  1 50 144  0 0 0   .000000000000000
  1 25 39  1 51 144  1 26 39   .1111111111111111
  1 25 39  1 52 144  1 26 39   .2222222222222222
  1 25 39  1 53 144  1 26 39   .3333333333333333
  1 25 39  1 54 144  1 26 39   .4444444444444444
  1 26 39  1 55 144  1 25 39   .4444444444444444
  1 26 39  1 56 144  1 25 39   .3333333333333333
  1 26 39  1 57 144  1 25 39   .2222222222222222
  1 26 39  1 58 144  1 25 39   .1111111111111111
  1 26 39  1 59 144  0 0 0   .000000000000000
  1 26 39  1 60 144  1 27 39   .1111111111111111
  1 26 39  1 61 144  1 27 39   .2222222222222222
  1 26 39  1 62 144  1 27 39   .3333333333333333
  1 26 39  1 63 144  1 27 39   .4444444444444444
  1 27 39  1 64 144  1 26 39   .4444444444444444
  1 27 39  1 65 144  1 26 39   .3333333333333333
  1 27 39  1 66 144  1 26 39   .2222222222222222
  1 27 39  1 67 144  1 26 39   .1111111111111111
  1 27 39  1 68 144  0 0 0   .000000000000000
  1 27 39  1 69 144  1 28 39   .1111111111111111
  1 27 39  1 70 144  1 28 39   .2222222222222222
  1 27 39  1 71 144  1 28 39   .3333333333333333
  1 27 39  1 72 144  1 28 39   .4444444444444444
  1 28 39  1 73 144  1 27 39   .4444444444444444
  1 28 39  1 74 144  1 27 39   .3333333333333333
  1 28 39  1 75 144  1 27 39   .2222222222222222
  1 28 39  1 76 144  1 27 39   .1111111111111111
  1 28 39  1 77 144  0 0 0   .000000000000000
  1 28 39  1 78 144  1 29 39   .1111111111111111
  1 28 39  1 79 144  1 29 39   .2222222222222222
  1 28 39  1 80 144  1 29 39   .3333333333333333
  1 28 39  1 81 144  1 29 39   .4444444444444444
  1 29 39  1 82 144  1 28 39   .4444444444444444
  1 29 39  1 83 144  1 28 39   .3333333333333333
  1 29 39  1 84 144  1 28 39   .2222222222222222
  1 29 39  1 85 144  1 28 39   .1111111111111111
  1 29 39  1 86 144  0 0 0   .000000000000000
  1 29 39  1 87 144  1 30 39   .1111111111111111
  1 29 39  1 88 144  1 30 39   .2222222222222222
  1 29 39  1 89 144  1 30 39   .3333333333333333
  1 29 39  1 90 144  1 30 39   .4444444444444444
  1 30 39  1 91 144  1 29 39   .4444444444444444
  1 30 39  1 92 144  1 29 39   .3333333333333333
  1 30 39  1 93 144  1 29 39   .2222222222222222
  1 30 39  1 94 144  1 29 39   .1111111111111111
  1 30 39  1 95 144  0 0 0   .000000000000000
  1 30 39  1 96 144  1 31 39   .1111111111111111
  1 30 39  1 97 144  1 31 39   .2222222222222222
  1 30 39  1 98 144  1 31 39   .3333333333333333
  1 30 39  1 99 144  1 31 39   .4444444444444444
  1 31 39  1 100 144  1 30 39   .4444444444444444
  1 31 39  1 101 144  1 30 39   .3333333333333333
  1 31 39  1 102 144  1 30 39   .2222222222222222
  1 31 39  1 103 144  1 30 39   .1111111111111111
  1 31 39  1 104 144  0 0 0   .000000000000000
  1 31 39  1 105 144  1 32 39   .1111111111111111
  1 31 39  1 106 144  1 32 39   .2222222222222222
  1 31 39  1 107 144  1 32 39   .3333333333333333
  1 31 39  1 108 144  1 32 39   .4444444444444444
  # back, child layer 1
  1 19 23  1 1 1  1 19 22   .4444445405405406
  1 19 23  1 1 2  1 19 22   .3333334054054054
  1 19 23  1 1 3  1 19 22   .2222222702702703
  1 19 23  1 1 4  1 19 22   .1111111351351351
  1 19 23  1 1 5  0 0 0   .000000000000000
  1 19 23  1 1 6  1 19 24   .1111111351351352
  1 19 23  1 1 7  1 19 24   .2222222702702703
  1 19 23  1 1 8  1 19 24   .3333334054054055
  1 19 23  1 1 9  1 19 24   .4444445405405407
  1 19 24  1 1 10  1 19 23   .4444445405405406
  1 19 24  1 1 11  1 19 23   .3333334054054054
  1 19 24  1 1 12  1 19 23   .2222222702702703
  1 19 24  1 1 13  1 19 23   .1111111351351351
  1 19 24  1 1 14  0 0 0   .000000000000000
  1 19 24  1 1 15  1 19 25   .1111111351351352
  1 19 24  1 1 16  1 19 25   .2222222702702703
  1 19 24  1 1 17  1 19 25   .3333334054054055
  1 19 24  1 1 18  1 19 25   .4444445405405407
  1 19 25  1 1 19  1 19 24   .4444445405405406
  1 19 25  1 1 20  1 19 24   .3333334054054054
  1 19 25  1 1 21  1 19 24   .2222222702702703
  1 19 25  1 1 22  1 19 24   .1111111351351351
  1 19 25  1 1 23  0 0 0   .000000000000000
  1 19 25  1 1 24  1 19 26   .1111111351351352
  1 19 25  1 1 25  1 19 26   .2222222702702703
  1 19 25  1 1 26  1 19 26   .3333334054054055
  1 19 25  1 1 27  1 19 26   .4444445405405407
  1 19 26  1 1 28  1 19 25   .4444445405405406
  1 19 26  1 1 29  1 19 25   .3333334054054054
  1 19 26  1 1 30  1 19 25   .2222222702702703
  1 19 26  1 1 31  1 19 25   .1111111351351351
  1 19 26  1 1 32  0 0 0   .000000000000000
  1 19 26  1 1 33  1 19 27   .1111111351351352
  1 19 26  1 1 34  1 19 27   .2222222702702703
  1 19 26  1 1 35  1 19 27   .3333334054054055
  1 19 26  1 1 36  1 19 27   .4444445405405407
  1 19 27  1 1 37  1 19 26   .4444445405405406
  1 19 27  1 1 38  1 19 26   .3333334054054054
  1 19 27  1 1 39  1 19 26   .2222222702702703
  1 19 27  1 1 40  1 19 26   .1111111351351351
  1 19 27  1 1 41  0 0 0   .000000000000000
  1 19 27  1 1 42  1 19 28   .1111111351351352
  1 19 27  1 1 43  1 19 28   .2222222702702703
  1 19 27  1 1 44  1 19 28   .3333334054054055
  1 19 27  1 1 45  1 19 28   .4444445405405407
  1 19 28  1 1 46  1 19 27   .4444445405405406
  1 19 28  1 1 47  1 19 27   .3333334054054054
  1 19 28  1 1 48  1 19 27   .2222222702702703
  1 19 28  1 1 49  1 19 27   .1111111351351351
  1 19 28  1 1 50  0 0 0   .000000000000000
  1 19 28  1 1 51  1 19 29   .1111111351351352
  1 19 28  1 1 52  1 19 29   .2222222702702703
  1 19 28  1 1 53  1 19 29   .3333334054054055
  1 19 28  1 1 54  1 19 29   .4444445405405407
  1 19 29  1 1 55  1 19 28   .4444445405405406
  1 19 29  1 1 56  1 19 28   .3333334054054054
  1 19 29  1 1 57  1 19 28   .2222222702702703
  1 19 29  1 1 58  1 19 28   .1111111351351351
  1 19 29  1 1 59  0 0 0   .000000000000000
  1 19 29  1 1 60  1 19 30   .1111111351351352
  1 19 29  1 1 61  1 19 30   .2222222702702703
  1 19 29  1 1 62  1 19 30   .3333334054054055
  1 19 29  1 1 63  1 19 30   .4444445405405407
  1 19 30  1 1 64  1 19 29   .4444445405405406
  1 19 30  1 1 65  1 19 29   .3333334054054054
  1 19 30  1 1 66  1 19 29   .2222222702702703
  1 19 30  1 1 67  1 19 29   .1111111351351351
  1 19 30  1 1 68  0 0 0   .000000000000000
  1 19 30  1 1 69  1 19 31   .1111111351351352
  1 19 30  1 1 70  1 19 31   .2222222702702703
  1 19 30  1 1 71  1 19 31   .3333334054054055
  1 19 30  1 1 72  1 19 31   .4444445405405407
  1 19 31  1 1 73  1 19 30   .4444445405405406
  1 19 31  1 1 74  1 19 30   .3333334054054054
  1 19 31  1 1 75  1 19 30   .2222222702702703
  1 19 31  1 1 76  1 19 30   .1111111351351351
  1 19 31  1 1 77  0 0 0   .000000000000000
  1 19 31  1 1 78  1 19 32   .1111111351351352
  1 19 31  1 1 79  1 19 32   .2222222702702703
  1 19 31  1 1 80  1 19 32   .3333334054054055
  1 19 31  1 1 81  1 19 32   .4444445405405407
  1 19 32  1 1 82  1 19 31   .4444445405405406
  1 19 32  1 1 83  1 19 31   .3333334054054054
  1 19 32  1 1 84  1 19 31   .2222222702702703
  1 19 32  1 1 85  1 19 31   .1111111351351351
  1 19 32  1 1 86  0 0 0   .000000000000000
  1 19 32  1 1 87  1 19 33   .1111111351351352
  1 19 32  1 1 88  1 19 33   .2222222702702703
  1 19 32  1 1 89  1 19 33   .3333334054054055
  1 19 32  1 1 90  1 19 33   .4444445405405407
  1 19 33  1 1 91  1 19 32   .4444445405405406
  1 19 33  1 1 92  1 19 32   .3333334054054054
  1 19 33  1 1 93  1 19 32   .2222222702702703
  1 19 33  1 1 94  1 19 32   .1111111351351351
  1 19 33  1 1 95  0 0 0   .000000000000000
  1 19 33  1 1 96  1 19 34   .1111111351351352
  1 19 33  1 1 97  1 19 34   .2222222702702703
  1 19 33  1 1 98  1 19 34   .3333334054054055
  1 19 33  1 1 99  1 19 34   .4444445405405407
  1 19 34  1 1 100  1 19 33   .4444445405405406
  1 19 34  1 1 101  1 19 33   .3333334054054054
  1 19 34  1 1 102  1 19 33   .2222222702702703
  1 19 34  1 1 103  1 19 33   .1111111351351351
  1 19 34  1 1 104  0 0 0   .000000000000000
  1 19 34  1 1 105  1 19 35   .1111111351351352
  1 19 34  1 1 106  1 19 35   .2222222702702703
  1 19 34  1 1 107  1 19 35   .3333334054054055
  1 19 34  1 1 108  1 19 35   .4444445405405407
  1 19 35  1 1 109  1 19 34   .4444445405405406
  1 19 35  1 1 110  1 19 34   .3333334054054054
  1 19 35  1 1 111  1 19 34   .2222222702702703
  1 19 35  1 1 112  1 19 34   .1111111351351351
  1 19 35  1 1 113  0 0 0   .000000000000000
  1 19 35  1 1 114  1 19 36   .1111111351351352
  1 19 35  1 1 115  1 19 36   .2222222702702703
  1 19 35  1 1 116  1 19 36   .3333334054054055
  1 19 35  1 1 117  1 19 36   .4444445405405407
  1 19 36  1 1 118  1 19 35   .4444445405405406
  1 19 36  1 1 119  1 19 35   .3333334054054054
  1 19 36  1 1 120  1 19 35   .2222222702702703
  1 19 36  1 1 121  1 19 35   .1111111351351351
  1 19 36  1 1 122  0 0 0   .000000000000000
  1 19 36  1 1 123  1 19 37   .1111111351351352
  1 19 36  1 1 124  1 19 37   .2222222702702703
  1 19 36  1 1 125  1 19 37   .3333334054054055
  1 19 36  1 1 126  1 19 37   .4444445405405407
  1 19 37  1 1 127  1 19 36   .4444445405405406
  1 19 37  1 1 128  1 19 36   .3333334054054054
  1 19 37  1 1 129  1 19 36   .2222222702702703
  1 19 37  1 1 130  1 19 36   .1111111351351351
  1 19 37  1 1 131  0 0 0   .000000000000000
  1 19 37  1 1 132  1 19 38   .1111111351351352
  1 19 37  1 1 133  1 19 38   .2222222702702703
  1 19 37  1 1 134  1 19 38   .3333334054054055
  1 19 37  1 1 135  1 19 38   .4444445405405407
  1 19 38  1 1 136  1 19 37   .4444445405405406
  1 19 38  1 1 137  1 19 37   .3333334054054054
  1 19 38  1 1 138  1 19 37   .2222222702702703
  1 19 38  1 1 139  1 19 37   .1111111351351351
  1 19 38  1 1 140  0 0 0   .000000000000000
  1 19 38  1 1 141  1 19 39   .1111111351351352
  1 19 38  1 1 142  1 19 39   .2222222702702703
  1 19 38  1 1 143  1 19 39   .3333334054054055
  1 19 38  1 1 144  1 19 39   .4444445405405407
  # front, child layer 1
  1 32 23  1 108 1  1 32 22   .4444445405405406
  1 32 23  1 108 2  1 32 22   .3333334054054054
  1 32 23  1 108 3  1 32 22   .2222222702702703
  1 32 23  1 108 4  1 32 22   .1111111351351351
  1 32 23  1 108 5  0 0 0   .000000000000000
  1 32 23  1 108 6  1 32 24   .1111111351351352
  1 32 23  1 108 7  1 32 24   .2222222702702703
  1 32 23  1 108 8  1 32 24   .3333334054054055
  1 32 23  1 108 9  1 32 24   .4444445405405407
  1 32 24  1 108 10  1 32 23   .4444445405405406
  1 32 24  1 108 11  1 32 23   .3333334054054054
  1 32 24  1 108 12  1 32 23   .2222222702702703
  1 32 24  1 108 13  1 32 23   .1111111351351351
  1 32 24  1 108 14  0 0 0   .000000000000000
  1 32 24  1 108 15  1 32 25   .1111111351351352
  1 32 24  1 108 16  1 32 25   .2222222702702703
  1 32 24  1 108 17  1 32 25   .3333334054054055
  1 32 24  1 108 18  1 32 25   .4444445405405407
  1 32 25  1 108 19  1 32 24   .4444445405405406
  1 32 25  1 108 20  1 32 24   .3333334054054054
  1 32 25  1 108 21  1 32 24   .2222222702702703
  1 32 25  1 108 22  1 32 24   .1111111351351351
  1 32 25  1 108 23  0 0 0   .000000000000000
  1 32 25  1 108 24  1 32 26   .1111111351351352
  1 32 25  1 108 25  1 32 26   .2222222702702703
  1 32 25  1 108 26  1 32 26   .3333334054054055
  1 32 25  1 108 27  1 32 26   .4444445405405407
  1 32 26  1 108 28  1 32 25   .4444445405405406
  1 32 26  1 108 29  1 32 25   .3333334054054054
  1 32 26  1 108 30  1 32 25   .2222222702702703
  1 32 26  1 108 31  1 32 25   .1111111351351351
  1 32 26  1 108 32  0 0 0   .000000000000000
  1 32 26  1 108 33  1 32 27   .1111111351351352
  1 32 26  1 108 34  1 32 27   .2222222702702703
  1 32 26  1 108 35  1 32 27   .3333334054054055
  1 32 26  1 108 36  1 32 27   .4444445405405407
  1 32 27  1 108 37  1 32 26   .4444445405405406
  1 32 27  1 108 38  1 32 26   .3333334054054054
  1 32 27  1 108 39  1 32 26   .2222222702702703
  1 32 27  1 108 40  1 32 26   .1111111351351351
  1 32 27  1 108 41  0 0 0   .000000000000000
  1 32 27  1 108 42  1 32 28   .1111111351351352
  1 32 27  1 108 43  1 32 28   .2222222702702703
  1 32 27  1 108 44  1 32 28   .3333334054054055
  1 32 27  1 108 45  1 32 28   .4444445405405407
  1 32 28  1 108 46  1 32 27   .4444445405405406
  1 32 28  1 108 47  1 32 27   .3333334054054054
  1 32 28  1 108 48  1 32 27   .2222222702702703
  1 32 28  1 108 49  1 32 27   .1111111351351351
  1 32 28  1 108 50  0 0 0   .000000000000000
  1 32 28  1 108 51  1 32 29   .1111111351351352
  1 32 28  1 108 52  1 32 29   .2222222702702703
  1 32 28  1 108 53  1 32 29   .3333334054054055
  1 32 28  1 108 54  1 32 29   .4444445405405407
  1 32 29  1 108 55  1 32 28   .4444445405405406
  1 32 29  1 108 56  1 32 28   .3333334054054054
  1 32 29  1 108 57  1 32 28   .2222222702702703
  1 32 29  1 108 58  1 32 28   .1111111351351351
  1 32 29  1 108 59  0 0 0   .000000000000000
  1 32 29  1 108 60  1 32 30   .1111111351351352
  1 32 29  1 108 61  1 32 30   .2222222702702703
  1 32 29  1 108 62  1 32 30   .3333334054054055
  1 32 29  1 108 63  1 32 30   .4444445405405407
  1 32 30  1 108 64  1 32 29   .4444445405405406
  1 32 30  1 108 65  1 32 29   .3333334054054054
  1 32 30  1 108 66  1 32 29   .2222222702702703
  1 32 30  1 108 67  1 32 29   .1111111351351351
  1 32 30  1 108 68  0 0 0   .000000000000000
  1 32 30  1 108 69  1 32 31   .1111111351351352
  1 32 30  1 108 70  1 32 31   .2222222702702703
  1 32 30  1 108 71  1 32 31   .3333334054054055
  1 32 30  1 108 72  1 32 31   .4444445405405407
  1 32 31  1 108 73  1 32 30   .4444445405405406
  1 32 31  1 108 74  1 32 30   .3333334054054054
  1 32 31  1 108 75  1 32 30   .2222222702702703
  1 32 31  1 108 76  1 32 30   .1111111351351351
  1 32 31  1 108 77  0 0 0   .000000000000000
  1 32 31  1 108 78  1 32 32   .1111111351351352
  1 32 31  1 108 79  1 32 32   .2222222702702703
  1 32 31  1 108 80  1 32 32   .3333334054054055
  1 32 31  1 108 81  1 32 32   .4444445405405407
  1 32 32  1 108 82  1 32 31   .4444445405405406
  1 32 32  1 108 83  1 32 31   .3333334054054054
  1 32 32  1 108 84  1 32 31   .2222222702702703
  1 32 32  1 108 85  1 32 31   .1111111351351351
  1 32 32  1 108 86  0 0 0   .000000000000000
  1 32 32  1 108 87  1 32 33   .1111111351351352
  1 32 32  1 108 88  1 32 33   .2222222702702703
  1 32 32  1 108 89  1 32 33   .3333334054054055
  1 32 32  1 108 90  1 32 33   .4444445405405407
  1 32 33  1 108 91  1 32 32   .4444445405405406
  1 32 33  1 108 92  1 32 32   .3333334054054054
  1 32 33  1 108 93  1 32 32   .2222222702702703
  1 32 33  1 108 94  1 32 32   .1111111351351351
  1 32 33  1 108 95  0 0 0   .000000000000000
  1 32 33  1 108 96  1 32 34   .1111111351351352
  1 32 33  1 108 97  1 32 34   .2222222702702703
  1 32 33  1 108 98  1 32 34   .3333334054054055
  1 32 33  1 108 99  1 32 34   .4444445405405407
  1 32 34  1 108 100  1 32 33   .4444445405405406
  1 32 34  1 108 101  1 32 33   .3333334054054054
  1 32 34  1 108 102  1 32 33   .2222222702702703
  1 32 34  1 108 103  1 32 33   .1111111351351351
  1 32 34  1 108 104  0 0 0   .000000000000000
  1 32 34  1 108 105  1 32 35   .1111111351351352
  1 32 34  1 108 106  1 32 35   .2222222702702703
  1 32 34  1 108 107  1 32 35   .3333334054054055
  1 32 34  1 108 108  1 32 35   .4444445405405407
  1 32 35  1 108 109  1 32 34   .4444445405405406
  1 32 35  1 108 110  1 32 34   .3333334054054054
  1 32 35  1 108 111  1 32 34   .2222222702702703
  1 32 35  1 108 112  1 32 34   .1111111351351351
  1 32 35  1 108 113  0 0 0   .000000000000000
  1 32 35  1 108 114  1 32 36   .1111111351351352
  1 32 35  1 108 115  1 32 36   .2222222702702703
  1 32 35  1 108 116  1 32 36   .3333334054054055
  1 32 35  1 108 117  1 32 36   .4444445405405407
  1 32 36  1 108 118  1 32 35   .4444445405405406
  1 32 36  1 108 119  1 32 35   .3333334054054054
  1 32 36  1 108 120  1 32 35   .2222222702702703
  1 32 36  1 108 121  1 32 35   .1111111351351351
  1 32 36  1 108 122  0 0 0   .000000000000000
  1 32 36  1 108 123  1 32 37   .1111111351351352
  1 32 36  1 108 124  1 32 37   .2222222702702703
  1 32 36  1 108 125  1 32 37   .3333334054054055
  1 32 36  1 108 126  1 32 37   .4444445405405407
  1 32 37  1 108 127  1 32 36   .4444445405405406
  1 32 37  1 108 128  1 32 36   .3333334054054054
  1 32 37  1 108 129  1 32 36   .2222222702702703
  1 32 37  1 108 130  1 32 36   .1111111351351351
  1 32 37  1 108 131  0 0 0   .000000000000000
  1 32 37  1 108 132  1 32 38   .1111111351351352
  1 32 37  1 108 133  1 32 38   .2222222702702703
  1 32 37  1 108 134  1 32 38   .3333334054054055
  1 32 37  1 108 135  1 32 38   .4444445405405407
  1 32 38  1 108 136  1 32 37   .4444445405405406
  1 32 38  1 108 137  1 32 37   .3333334054054054
  1 32 38  1 108 138  1 32 37   .2222222702702703
  1 32 38  1 108 139  1 32 37   .1111111351351351
  1 32 38  1 108 140  0 0 0   .000000000000000
  1 32 38  1 108 141  1 32 39   .1111111351351352
  1 32 38  1 108 142  1 32 39   .2222222702702703
  1 32 38  1 108 143  1 32 39   .3333334054054055
  1 32 38  1 108 144  1 32 39   .4444445405405407
End GncData
