# CHD8 input file, prepared by MF5to6 on 8/5/2016 at 18:32:02.

BEGIN Options
  PRINT_INPUT
  PRINT_FLOWS
END Options

BEGIN Dimensions
  MAXBOUND  100
END Dimensions

BEGIN PERIOD 1
  1  1  1    10.000000
  1  1  108    1.0000000
  1  2  1    10.000000
  1  2  108    1.0000000
  1  3  1    10.000000
  1  3  108    1.0000000
  1  4  1    10.000000
  1  4  108    1.0000000
  1  5  1    10.000000
  1  5  108    1.0000000
  1  6  1    10.000000
  1  6  108    1.0000000
  1  7  1    10.000000
  1  7  108    1.0000000
  1  8  1    10.000000
  1  8  108    1.0000000
  1  9  1    10.000000
  1  9  108    1.0000000
  1  10  1    10.000000
  1  10  108    1.0000000
  1  11  1    10.000000
  1  11  108    1.0000000
  1  12  1    10.000000
  1  12  108    1.0000000
  1  13  1    10.000000
  1  13  108    1.0000000
  1  14  1    10.000000
  1  14  108    1.0000000
  1  15  1    10.000000
  1  15  108    1.0000000
  1  16  1    10.000000
  1  16  108    1.0000000
  1  17  1    10.000000
  1  17  108    1.0000000
  1  18  1    10.000000
  1  18  108    1.0000000
  1  19  1    10.000000
  1  19  108    1.0000000
  1  20  1    10.000000
  1  20  108    1.0000000
  1  21  1    10.000000
  1  21  108    1.0000000
  1  22  1    10.000000
  1  22  108    1.0000000
  1  23  1    10.000000
  1  23  108    1.0000000
  1  24  1    10.000000
  1  24  108    1.0000000
  1  25  1    10.000000
  1  25  108    1.0000000
  1  26  1    10.000000
  1  26  108    1.0000000
  1  27  1    10.000000
  1  27  108    1.0000000
  1  28  1    10.000000
  1  28  108    1.0000000
  1  29  1    10.000000
  1  29  108    1.0000000
  1  30  1    10.000000
  1  30  108    1.0000000
  1  31  1    10.000000
  1  31  108    1.0000000
  1  32  1    10.000000
  1  32  108    1.0000000
  1  33  1    10.000000
  1  33  108    1.0000000
  1  34  1    10.000000
  1  34  108    1.0000000
  1  35  1    10.000000
  1  35  108    1.0000000
  1  36  1    10.000000
  1  36  108    1.0000000
  1  37  1    10.000000
  1  37  108    1.0000000
  1  38  1    10.000000
  1  38  108    1.0000000
  1  39  1    10.000000
  1  39  108    1.0000000
  1  40  1    10.000000
  1  40  108    1.0000000
  1  41  1    10.000000
  1  41  108    1.0000000
  1  42  1    10.000000
  1  42  108    1.0000000
  1  43  1    10.000000
  1  43  108    1.0000000
  1  44  1    10.000000
  1  44  108    1.0000000
  1  45  1    10.000000
  1  45  108    1.0000000
  1  46  1    10.000000
  1  46  108    1.0000000
  1  47  1    10.000000
  1  47  108    1.0000000
  1  48  1    10.000000
  1  48  108    1.0000000
  1  49  1    10.000000
  1  49  108    1.0000000
  1  50  1    10.000000
  1  50  108    1.0000000
END PERIOD
