# SFR8 input file, prepared by MF5to6 on 8/5/2016 at 18:32:02.

BEGIN Options
  MAXIMUM_DEPTH_CHANGE   0.10000000E-03
  PRINT_STAGE
  PRINT_FLOWS   
  MOVER
END Options

BEGIN Dimensions
  NREACHES  92
END Dimensions

BEGIN PACKAGEDATA
  # rno cellid rlen           rwid            rgrd            rbtp            rbth            rbhk             man       ncon  ustrf  ndv
  1 1 26 1    9.250000        20.00000       0.1200000E-01    13.94450        1.500000       0.2000000E-01   0.4000000E-01  1  1.0000  0
  2 1 26 2    9.250000        20.00000       0.1200000E-01    13.83350        1.500000       0.2000000E-01   0.4000000E-01  2  1.0000  0
  3 1 26 3    9.250000        20.00000       0.1200000E-01    13.72250        1.500000       0.2000000E-01   0.4000000E-01  2  1.0000  0
  4 1 26 4    9.250000        20.00000       0.1200000E-01    13.61150        1.500000       0.2000000E-01   0.4000000E-01  2  1.0000  0
  5 1 26 5    9.250000        20.00000       0.1200000E-01    13.50050        1.500000       0.2000000E-01   0.4000000E-01  2  1.0000  0
  6 1 26 6    9.250000        20.00000       0.1200000E-01    13.38950        1.500000       0.2000000E-01   0.4000000E-01  2  1.0000  0
  7 1 26 7    9.250000        20.00000       0.1200000E-01    13.27850        1.500000       0.2000000E-01   0.4000000E-01  2  1.0000  0
  8 1 26 8    9.250000        20.00000       0.1200000E-01    13.16750        1.500000       0.2000000E-01   0.4000000E-01  2  1.0000  0
  9 1 26 9    9.250000        20.00000       0.1200000E-01    13.05650        1.500000       0.2000000E-01   0.4000000E-01  2  1.0000  0
  10 1 26 10    9.250000        20.00000       0.1200000E-01    12.94550        1.500000       0.2000000E-01   0.4000000E-01  2  1.0000  0
  11 1 26 11    9.250000        20.00000       0.1200000E-01    12.83450        1.500000       0.2000000E-01   0.4000000E-01  2  1.0000  0
  12 1 26 12    9.250000        20.00000       0.1200000E-01    12.72350        1.500000       0.2000000E-01   0.4000000E-01  2  1.0000  0
  13 1 26 13    9.250000        20.00000       0.1200000E-01    12.61250        1.500000       0.2000000E-01   0.4000000E-01  2  1.0000  0
  14 1 26 14    9.250000        20.00000       0.1200000E-01    12.50150        1.500000       0.2000000E-01   0.4000000E-01  2  1.0000  0
  15 1 26 15    9.250000        20.00000       0.1200000E-01    12.39050        1.500000       0.2000000E-01   0.4000000E-01  2  1.0000  0
  16 1 26 16    9.250000        20.00000       0.1200000E-01    12.27950        1.500000       0.2000000E-01   0.4000000E-01  2  1.0000  0
  17 1 26 17    9.250000        20.00000       0.1200000E-01    12.16850        1.500000       0.2000000E-01   0.4000000E-01  2  1.0000  0
  18 1 26 18    9.250000        20.00000       0.1200000E-01    12.05750        1.500000       0.2000000E-01   0.4000000E-01  2  1.0000  0
  19 1 26 19    9.250000        20.00000       0.1200000E-01    11.94650        1.500000       0.2000000E-01   0.4000000E-01  2  1.0000  0
  20 1 26 20    9.250000        20.00000       0.1200000E-01    11.83550        1.500000       0.2000000E-01   0.4000000E-01  2  1.0000  0
  21 1 26 21    9.250000        20.00000       0.1200000E-01    11.72450        1.500000       0.2000000E-01   0.4000000E-01  2  1.0000  0
  22 1 26 22    9.250000        20.00000       0.1200000E-01    11.61350        1.500000       0.2000000E-01   0.4000000E-01  1  1.0000  0
  23 1 26 39    9.250000        20.00000       0.1201853E-01    9.726414        1.500000       0.2000000E-01   0.4000000E-01  1  1.0000  0
  24 1 26 40    9.250000        20.00000       0.1201853E-01    9.615242        1.500000       0.2000000E-01   0.4000000E-01  2  1.0000  0
  25 1 26 41    9.250000        20.00000       0.1201853E-01    9.504071        1.500000       0.2000000E-01   0.4000000E-01  2  1.0000  0
  26 1 26 42    9.250000        20.00000       0.1201853E-01    9.392900        1.500000       0.2000000E-01   0.4000000E-01  2  1.0000  0
  27 1 26 43    9.250000        20.00000       0.1201853E-01    9.281728        1.500000       0.2000000E-01   0.4000000E-01  2  1.0000  0
  28 1 26 44    9.250000        20.00000       0.1201853E-01    9.170557        1.500000       0.2000000E-01   0.4000000E-01  2  1.0000  0
  29 1 26 45    9.250000        20.00000       0.1201853E-01    9.059385        1.500000       0.2000000E-01   0.4000000E-01  2  1.0000  0
  30 1 26 46    9.250000        20.00000       0.1201853E-01    8.948214        1.500000       0.2000000E-01   0.4000000E-01  2  1.0000  0
  31 1 26 47    9.250000        20.00000       0.1201853E-01    8.837043        1.500000       0.2000000E-01   0.4000000E-01  2  1.0000  0
  32 1 26 48    9.250000        20.00000       0.1201853E-01    8.725871        1.500000       0.2000000E-01   0.4000000E-01  2  1.0000  0
  33 1 26 49    9.250000        20.00000       0.1201853E-01    8.614699        1.500000       0.2000000E-01   0.4000000E-01  2  1.0000  0
  34 1 26 50    9.250000        20.00000       0.1201853E-01    8.503529        1.500000       0.2000000E-01   0.4000000E-01  2  1.0000  0
  35 1 26 51    9.250000        20.00000       0.1201853E-01    8.392357        1.500000       0.2000000E-01   0.4000000E-01  2  1.0000  0
  36 1 26 52    9.250000        20.00000       0.1201853E-01    8.281185        1.500000       0.2000000E-01   0.4000000E-01  2  1.0000  0
  37 1 26 53    9.250000        20.00000       0.1201853E-01    8.170013        1.500000       0.2000000E-01   0.4000000E-01  2  1.0000  0
  38 1 26 54    9.250000        20.00000       0.1201853E-01    8.058843        1.500000       0.2000000E-01   0.4000000E-01  2  1.0000  0
  39 1 26 55    9.250000        20.00000       0.1201853E-01    7.947671        1.500000       0.2000000E-01   0.4000000E-01  2  1.0000  0
  40 1 26 56    9.250000        20.00000       0.1201853E-01    7.836500        1.500000       0.2000000E-01   0.4000000E-01  2  1.0000  0
  41 1 26 57    9.250000        20.00000       0.1201853E-01    7.725328        1.500000       0.2000000E-01   0.4000000E-01  2  1.0000  0
  42 1 26 58    9.250000        20.00000       0.1201853E-01    7.614157        1.500000       0.2000000E-01   0.4000000E-01  2  1.0000  0
  43 1 26 59    9.250000        20.00000       0.1201853E-01    7.502985        1.500000       0.2000000E-01   0.4000000E-01  2  1.0000  0
  44 1 26 60    9.250000        20.00000       0.1201853E-01    7.391814        1.500000       0.2000000E-01   0.4000000E-01  2  1.0000  0
  45 1 26 61    9.250000        20.00000       0.1201853E-01    7.280643        1.500000       0.2000000E-01   0.4000000E-01  2  1.0000  0
  46 1 26 62    9.250000        20.00000       0.1201853E-01    7.169471        1.500000       0.2000000E-01   0.4000000E-01  2  1.0000  0
  47 1 26 63    9.250000        20.00000       0.1201853E-01    7.058300        1.500000       0.2000000E-01   0.4000000E-01  2  1.0000  0
  48 1 26 64    9.250000        20.00000       0.1201853E-01    6.947128        1.500000       0.2000000E-01   0.4000000E-01  2  1.0000  0
  49 1 26 65    9.250000        20.00000       0.1201853E-01    6.835957        1.500000       0.2000000E-01   0.4000000E-01  2  1.0000  0
  50 1 26 66    9.250000        20.00000       0.1201853E-01    6.724785        1.500000       0.2000000E-01   0.4000000E-01  2  1.0000  0
  51 1 26 67    9.250000        20.00000       0.1201853E-01    6.613614        1.500000       0.2000000E-01   0.4000000E-01  2  1.0000  0
  52 1 26 68    9.250000        20.00000       0.1201853E-01    6.502442        1.500000       0.2000000E-01   0.4000000E-01  2  1.0000  0
  53 1 26 69    9.250000        20.00000       0.1201853E-01    6.391271        1.500000       0.2000000E-01   0.4000000E-01  2  1.0000  0
  54 1 26 70    9.250000        20.00000       0.1201853E-01    6.280100        1.500000       0.2000000E-01   0.4000000E-01  2  1.0000  0
  55 1 26 71    9.250000        20.00000       0.1201853E-01    6.168928        1.500000       0.2000000E-01   0.4000000E-01  2  1.0000  0
  56 1 26 72    9.250000        20.00000       0.1201853E-01    6.057757        1.500000       0.2000000E-01   0.4000000E-01  2  1.0000  0
  57 1 26 73    9.250000        20.00000       0.1201853E-01    5.946586        1.500000       0.2000000E-01   0.4000000E-01  2  1.0000  0
  58 1 26 74    9.250000        20.00000       0.1201853E-01    5.835414        1.500000       0.2000000E-01   0.4000000E-01  2  1.0000  0
  59 1 26 75    9.250000        20.00000       0.1201853E-01    5.724243        1.500000       0.2000000E-01   0.4000000E-01  2  1.0000  0
  60 1 26 76    9.250000        20.00000       0.1201853E-01    5.613071        1.500000       0.2000000E-01   0.4000000E-01  2  1.0000  0
  61 1 26 77    9.250000        20.00000       0.1201853E-01    5.501900        1.500000       0.2000000E-01   0.4000000E-01  2  1.0000  0
  62 1 26 78    9.250000        20.00000       0.1201853E-01    5.390728        1.500000       0.2000000E-01   0.4000000E-01  2  1.0000  0
  63 1 26 79    9.250000        20.00000       0.1201853E-01    5.279557        1.500000       0.2000000E-01   0.4000000E-01  2  1.0000  0
  64 1 26 80    9.250000        20.00000       0.1201853E-01    5.168386        1.500000       0.2000000E-01   0.4000000E-01  2  1.0000  0
  65 1 26 81    9.250000        20.00000       0.1201853E-01    5.057214        1.500000       0.2000000E-01   0.4000000E-01  2  1.0000  0
  66 1 26 82    9.250000        20.00000       0.1201853E-01    4.946043        1.500000       0.2000000E-01   0.4000000E-01  2  1.0000  0
  67 1 26 83    9.250000        20.00000       0.1201853E-01    4.834871        1.500000       0.2000000E-01   0.4000000E-01  2  1.0000  0
  68 1 26 84    9.250000        20.00000       0.1201853E-01    4.723700        1.500000       0.2000000E-01   0.4000000E-01  2  1.0000  0
  69 1 26 85    9.250000        20.00000       0.1201853E-01    4.612528        1.500000       0.2000000E-01   0.4000000E-01  2  1.0000  0
  70 1 26 86    9.250000        20.00000       0.1201853E-01    4.501357        1.500000       0.2000000E-01   0.4000000E-01  2  1.0000  0
  71 1 26 87    9.250000        20.00000       0.1201853E-01    4.390185        1.500000       0.2000000E-01   0.4000000E-01  2  1.0000  0
  72 1 26 88    9.250000        20.00000       0.1201853E-01    4.279014        1.500000       0.2000000E-01   0.4000000E-01  2  1.0000  0
  73 1 26 89    9.250000        20.00000       0.1201853E-01    4.167842        1.500000       0.2000000E-01   0.4000000E-01  2  1.0000  0
  74 1 26 90    9.250000        20.00000       0.1201853E-01    4.056671        1.500000       0.2000000E-01   0.4000000E-01  2  1.0000  0
  75 1 26 91    9.250000        20.00000       0.1201853E-01    3.945500        1.500000       0.2000000E-01   0.4000000E-01  2  1.0000  0
  76 1 26 92    9.250000        20.00000       0.1201853E-01    3.834328        1.500000       0.2000000E-01   0.4000000E-01  2  1.0000  0
  77 1 26 93    9.250000        20.00000       0.1201853E-01    3.723157        1.500000       0.2000000E-01   0.4000000E-01  2  1.0000  0
  78 1 26 94    9.250000        20.00000       0.1201853E-01    3.611986        1.500000       0.2000000E-01   0.4000000E-01  2  1.0000  0
  79 1 26 95    9.250000        20.00000       0.1201853E-01    3.500814        1.500000       0.2000000E-01   0.4000000E-01  2  1.0000  0
  80 1 26 96    9.250000        20.00000       0.1201853E-01    3.389643        1.500000       0.2000000E-01   0.4000000E-01  2  1.0000  0
  81 1 26 97    9.250000        20.00000       0.1201853E-01    3.278471        1.500000       0.2000000E-01   0.4000000E-01  2  1.0000  0
  82 1 26 98    9.250000        20.00000       0.1201853E-01    3.167300        1.500000       0.2000000E-01   0.4000000E-01  2  1.0000  0
  83 1 26 99    9.250000        20.00000       0.1201853E-01    3.056129        1.500000       0.2000000E-01   0.4000000E-01  2  1.0000  0
  84 1 26 100    9.250000        20.00000       0.1201853E-01    2.944957        1.500000       0.2000000E-01   0.4000000E-01  2  1.0000  0
  85 1 26 101    9.250000        20.00000       0.1201853E-01    2.833786        1.500000       0.2000000E-01   0.4000000E-01  2  1.0000  0
  86 1 26 102    9.250000        20.00000       0.1201853E-01    2.722614        1.500000       0.2000000E-01   0.4000000E-01  2  1.0000  0
  87 1 26 103    9.250000        20.00000       0.1201853E-01    2.611443        1.500000       0.2000000E-01   0.4000000E-01  2  1.0000  0
  88 1 26 104    9.250000        20.00000       0.1201853E-01    2.500271        1.500000       0.2000000E-01   0.4000000E-01  2  1.0000  0
  89 1 26 105    9.250000        20.00000       0.1201853E-01    2.389100        1.500000       0.2000000E-01   0.4000000E-01  2  1.0000  0
  90 1 26 106    9.250000        20.00000       0.1201853E-01    2.277928        1.500000       0.2000000E-01   0.4000000E-01  2  1.0000  0
  91 1 26 107    9.250000        20.00000       0.1201853E-01    2.166757        1.500000       0.2000000E-01   0.4000000E-01  2  1.0000  0
  92 1 26 108    9.250000        20.00000       0.1201853E-01    2.055585        1.500000       0.2000000E-01   0.4000000E-01  1  1.0000  0
END PACKAGEDATA

BEGIN CONNECTIONDATA
  1 -2
  2 1 -3
  3 2 -4
  4 3 -5
  5 4 -6
  6 5 -7
  7 6 -8
  8 7 -9
  9 8 -10
  10 9 -11
  11 10 -12
  12 11 -13
  13 12 -14
  14 13 -15
  15 14 -16
  16 15 -17
  17 16 -18
  18 17 -19
  19 18 -20
  20 19 -21
  21 20 -22
  22 21
  23 -24
  24 23 -25
  25 24 -26
  26 25 -27
  27 26 -28
  28 27 -29
  29 28 -30
  30 29 -31
  31 30 -32
  32 31 -33
  33 32 -34
  34 33 -35
  35 34 -36
  36 35 -37
  37 36 -38
  38 37 -39
  39 38 -40
  40 39 -41
  41 40 -42
  42 41 -43
  43 42 -44
  44 43 -45
  45 44 -46
  46 45 -47
  47 46 -48
  48 47 -49
  49 48 -50
  50 49 -51
  51 50 -52
  52 51 -53
  53 52 -54
  54 53 -55
  55 54 -56
  56 55 -57
  57 56 -58
  58 57 -59
  59 58 -60
  60 59 -61
  61 60 -62
  62 61 -63
  63 62 -64
  64 63 -65
  65 64 -66
  66 65 -67
  67 66 -68
  68 67 -69
  69 68 -70
  70 69 -71
  71 70 -72
  72 71 -73
  73 72 -74
  74 73 -75
  75 74 -76
  76 75 -77
  77 76 -78
  78 77 -79
  79 78 -80
  80 79 -81
  81 80 -82
  82 81 -83
  83 82 -84
  84 83 -85
  85 84 -86
  86 85 -87
  87 86 -88
  88 87 -89
  89 88 -90
  90 89 -91
  91 90 -92
  92 91
END CONNECTIONDATA

BEGIN PERIOD 1
  1 inflow   5.0000000
  1 rainfall   0.0000000
  1 evaporation   0.0000000
  1 runoff   0.0000000
  2 inflow   0.0000000
  2 rainfall   0.0000000
  2 evaporation   0.0000000
  2 runoff   0.0000000
  3 inflow   0.0000000
  3 rainfall   0.0000000
  3 evaporation   0.0000000
  3 runoff   0.0000000
  4 inflow   0.0000000
  4 rainfall   0.0000000
  4 evaporation   0.0000000
  4 runoff   0.0000000
  5 inflow   0.0000000
  5 rainfall   0.0000000
  5 evaporation   0.0000000
  5 runoff   0.0000000
  6 inflow   0.0000000
  6 rainfall   0.0000000
  6 evaporation   0.0000000
  6 runoff   0.0000000
  7 inflow   0.0000000
  7 rainfall   0.0000000
  7 evaporation   0.0000000
  7 runoff   0.0000000
  8 inflow   0.0000000
  8 rainfall   0.0000000
  8 evaporation   0.0000000
  8 runoff   0.0000000
  9 inflow   0.0000000
  9 rainfall   0.0000000
  9 evaporation   0.0000000
  9 runoff   0.0000000
  10 inflow   0.0000000
  10 rainfall   0.0000000
  10 evaporation   0.0000000
  10 runoff   0.0000000
  11 inflow   0.0000000
  11 rainfall   0.0000000
  11 evaporation   0.0000000
  11 runoff   0.0000000
  12 inflow   0.0000000
  12 rainfall   0.0000000
  12 evaporation   0.0000000
  12 runoff   0.0000000
  13 inflow   0.0000000
  13 rainfall   0.0000000
  13 evaporation   0.0000000
  13 runoff   0.0000000
  14 inflow   0.0000000
  14 rainfall   0.0000000
  14 evaporation   0.0000000
  14 runoff   0.0000000
  15 inflow   0.0000000
  15 rainfall   0.0000000
  15 evaporation   0.0000000
  15 runoff   0.0000000
  16 inflow   0.0000000
  16 rainfall   0.0000000
  16 evaporation   0.0000000
  16 runoff   0.0000000
  17 inflow   0.0000000
  17 rainfall   0.0000000
  17 evaporation   0.0000000
  17 runoff   0.0000000
  18 inflow   0.0000000
  18 rainfall   0.0000000
  18 evaporation   0.0000000
  18 runoff   0.0000000
  19 inflow   0.0000000
  19 rainfall   0.0000000
  19 evaporation   0.0000000
  19 runoff   0.0000000
  20 inflow   0.0000000
  20 rainfall   0.0000000
  20 evaporation   0.0000000
  20 runoff   0.0000000
  21 inflow   0.0000000
  21 rainfall   0.0000000
  21 evaporation   0.0000000
  21 runoff   0.0000000
  22 inflow   0.0000000
  22 rainfall   0.0000000
  22 evaporation   0.0000000
  22 runoff   0.0000000
  23 inflow   0.0000000
  23 rainfall   0.0000000
  23 evaporation   0.0000000
  23 runoff   0.0000000
  24 inflow   0.0000000
  24 rainfall   0.0000000
  24 evaporation   0.0000000
  24 runoff   0.0000000
  25 inflow   0.0000000
  25 rainfall   0.0000000
  25 evaporation   0.0000000
  25 runoff   0.0000000
  26 inflow   0.0000000
  26 rainfall   0.0000000
  26 evaporation   0.0000000
  26 runoff   0.0000000
  27 inflow   0.0000000
  27 rainfall   0.0000000
  27 evaporation   0.0000000
  27 runoff   0.0000000
  28 inflow   0.0000000
  28 rainfall   0.0000000
  28 evaporation   0.0000000
  28 runoff   0.0000000
  29 inflow   0.0000000
  29 rainfall   0.0000000
  29 evaporation   0.0000000
  29 runoff   0.0000000
  30 inflow   0.0000000
  30 rainfall   0.0000000
  30 evaporation   0.0000000
  30 runoff   0.0000000
  31 inflow   0.0000000
  31 rainfall   0.0000000
  31 evaporation   0.0000000
  31 runoff   0.0000000
  32 inflow   0.0000000
  32 rainfall   0.0000000
  32 evaporation   0.0000000
  32 runoff   0.0000000
  33 inflow   0.0000000
  33 rainfall   0.0000000
  33 evaporation   0.0000000
  33 runoff   0.0000000
  34 inflow   0.0000000
  34 rainfall   0.0000000
  34 evaporation   0.0000000
  34 runoff   0.0000000
  35 inflow   0.0000000
  35 rainfall   0.0000000
  35 evaporation   0.0000000
  35 runoff   0.0000000
  36 inflow   0.0000000
  36 rainfall   0.0000000
  36 evaporation   0.0000000
  36 runoff   0.0000000
  37 inflow   0.0000000
  37 rainfall   0.0000000
  37 evaporation   0.0000000
  37 runoff   0.0000000
  38 inflow   0.0000000
  38 rainfall   0.0000000
  38 evaporation   0.0000000
  38 runoff   0.0000000
  39 inflow   0.0000000
  39 rainfall   0.0000000
  39 evaporation   0.0000000
  39 runoff   0.0000000
  40 inflow   0.0000000
  40 rainfall   0.0000000
  40 evaporation   0.0000000
  40 runoff   0.0000000
  41 inflow   0.0000000
  41 rainfall   0.0000000
  41 evaporation   0.0000000
  41 runoff   0.0000000
  42 inflow   0.0000000
  42 rainfall   0.0000000
  42 evaporation   0.0000000
  42 runoff   0.0000000
  43 inflow   0.0000000
  43 rainfall   0.0000000
  43 evaporation   0.0000000
  43 runoff   0.0000000
  44 inflow   0.0000000
  44 rainfall   0.0000000
  44 evaporation   0.0000000
  44 runoff   0.0000000
  45 inflow   0.0000000
  45 rainfall   0.0000000
  45 evaporation   0.0000000
  45 runoff   0.0000000
  46 inflow   0.0000000
  46 rainfall   0.0000000
  46 evaporation   0.0000000
  46 runoff   0.0000000
  47 inflow   0.0000000
  47 rainfall   0.0000000
  47 evaporation   0.0000000
  47 runoff   0.0000000
  48 inflow   0.0000000
  48 rainfall   0.0000000
  48 evaporation   0.0000000
  48 runoff   0.0000000
  49 inflow   0.0000000
  49 rainfall   0.0000000
  49 evaporation   0.0000000
  49 runoff   0.0000000
  50 inflow   0.0000000
  50 rainfall   0.0000000
  50 evaporation   0.0000000
  50 runoff   0.0000000
  51 inflow   0.0000000
  51 rainfall   0.0000000
  51 evaporation   0.0000000
  51 runoff   0.0000000
  52 inflow   0.0000000
  52 rainfall   0.0000000
  52 evaporation   0.0000000
  52 runoff   0.0000000
  53 inflow   0.0000000
  53 rainfall   0.0000000
  53 evaporation   0.0000000
  53 runoff   0.0000000
  54 inflow   0.0000000
  54 rainfall   0.0000000
  54 evaporation   0.0000000
  54 runoff   0.0000000
  55 inflow   0.0000000
  55 rainfall   0.0000000
  55 evaporation   0.0000000
  55 runoff   0.0000000
  56 inflow   0.0000000
  56 rainfall   0.0000000
  56 evaporation   0.0000000
  56 runoff   0.0000000
  57 inflow   0.0000000
  57 rainfall   0.0000000
  57 evaporation   0.0000000
  57 runoff   0.0000000
  58 inflow   0.0000000
  58 rainfall   0.0000000
  58 evaporation   0.0000000
  58 runoff   0.0000000
  59 inflow   0.0000000
  59 rainfall   0.0000000
  59 evaporation   0.0000000
  59 runoff   0.0000000
  60 inflow   0.0000000
  60 rainfall   0.0000000
  60 evaporation   0.0000000
  60 runoff   0.0000000
  61 inflow   0.0000000
  61 rainfall   0.0000000
  61 evaporation   0.0000000
  61 runoff   0.0000000
  62 inflow   0.0000000
  62 rainfall   0.0000000
  62 evaporation   0.0000000
  62 runoff   0.0000000
  63 inflow   0.0000000
  63 rainfall   0.0000000
  63 evaporation   0.0000000
  63 runoff   0.0000000
  64 inflow   0.0000000
  64 rainfall   0.0000000
  64 evaporation   0.0000000
  64 runoff   0.0000000
  65 inflow   0.0000000
  65 rainfall   0.0000000
  65 evaporation   0.0000000
  65 runoff   0.0000000
  66 inflow   0.0000000
  66 rainfall   0.0000000
  66 evaporation   0.0000000
  66 runoff   0.0000000
  67 inflow   0.0000000
  67 rainfall   0.0000000
  67 evaporation   0.0000000
  67 runoff   0.0000000
  68 inflow   0.0000000
  68 rainfall   0.0000000
  68 evaporation   0.0000000
  68 runoff   0.0000000
  69 inflow   0.0000000
  69 rainfall   0.0000000
  69 evaporation   0.0000000
  69 runoff   0.0000000
  70 inflow   0.0000000
  70 rainfall   0.0000000
  70 evaporation   0.0000000
  70 runoff   0.0000000
  71 inflow   0.0000000
  71 rainfall   0.0000000
  71 evaporation   0.0000000
  71 runoff   0.0000000
  72 inflow   0.0000000
  72 rainfall   0.0000000
  72 evaporation   0.0000000
  72 runoff   0.0000000
  73 inflow   0.0000000
  73 rainfall   0.0000000
  73 evaporation   0.0000000
  73 runoff   0.0000000
  74 inflow   0.0000000
  74 rainfall   0.0000000
  74 evaporation   0.0000000
  74 runoff   0.0000000
  75 inflow   0.0000000
  75 rainfall   0.0000000
  75 evaporation   0.0000000
  75 runoff   0.0000000
  76 inflow   0.0000000
  76 rainfall   0.0000000
  76 evaporation   0.0000000
  76 runoff   0.0000000
  77 inflow   0.0000000
  77 rainfall   0.0000000
  77 evaporation   0.0000000
  77 runoff   0.0000000
  78 inflow   0.0000000
  78 rainfall   0.0000000
  78 evaporation   0.0000000
  78 runoff   0.0000000
  79 inflow   0.0000000
  79 rainfall   0.0000000
  79 evaporation   0.0000000
  79 runoff   0.0000000
  80 inflow   0.0000000
  80 rainfall   0.0000000
  80 evaporation   0.0000000
  80 runoff   0.0000000
  81 inflow   0.0000000
  81 rainfall   0.0000000
  81 evaporation   0.0000000
  81 runoff   0.0000000
  82 inflow   0.0000000
  82 rainfall   0.0000000
  82 evaporation   0.0000000
  82 runoff   0.0000000
  83 inflow   0.0000000
  83 rainfall   0.0000000
  83 evaporation   0.0000000
  83 runoff   0.0000000
  84 inflow   0.0000000
  84 rainfall   0.0000000
  84 evaporation   0.0000000
  84 runoff   0.0000000
  85 inflow   0.0000000
  85 rainfall   0.0000000
  85 evaporation   0.0000000
  85 runoff   0.0000000
  86 inflow   0.0000000
  86 rainfall   0.0000000
  86 evaporation   0.0000000
  86 runoff   0.0000000
  87 inflow   0.0000000
  87 rainfall   0.0000000
  87 evaporation   0.0000000
  87 runoff   0.0000000
  88 inflow   0.0000000
  88 rainfall   0.0000000
  88 evaporation   0.0000000
  88 runoff   0.0000000
  89 inflow   0.0000000
  89 rainfall   0.0000000
  89 evaporation   0.0000000
  89 runoff   0.0000000
  90 inflow   0.0000000
  90 rainfall   0.0000000
  90 evaporation   0.0000000
  90 runoff   0.0000000
  91 inflow   0.0000000
  91 rainfall   0.0000000
  91 evaporation   0.0000000
  91 runoff   0.0000000
  92 inflow   0.0000000
  92 rainfall   0.0000000
  92 evaporation   0.0000000
  92 runoff   0.0000000
END PERIOD
