# sms8 input file, prepared by mf5to6 on 8/5/2016 at 18:32:01.

begin options
  print_option  summary
  complexity  simple
end options

begin nonlinear
  outer_dvclose   0.1000000e-08
  outer_maximum  100
  under_relaxation  none
  under_relaxation_theta    0.000000    
  under_relaxation_kappa    0.000000    
  under_relaxation_gamma    0.000000    
  under_relaxation_momentum    0.000000    
end nonlinear

begin linear
  inner_maximum  135
  inner_dvclose   0.1000000e-09
  inner_rclose   0.1000000e-08
  linear_acceleration  bicgstab
  relaxation_factor    1.000000    
  number_orthogonalizations  2
  reordering_method  none
end linear
