BEGIN OPTIONS
  HEAD FILEOUT keatinglike.hds
  BUDGET FILEOUT keatinglike.cbb
END OPTIONS

BEGIN PERIOD 1
  PRINT BUDGET ALL
  SAVE BUDGET ALL
  PRINT HEAD ALL
  SAVE HEAD ALL
END PERIOD
