begin options
  SAVE_FLOWS
  DEV_MODFLOWUSG_UPSTREAM_WEIGHTED_SATURATION
end options
#
BEGIN GRIDDATA
  icelltype
    constant 1

  k
    INTERNAL
       8.475839E-01   8.475839E-01   8.475839E-01
       8.475839E-01   8.475839E-01   8.475839E-01
       8.475839E-01   8.475839E-01   8.475839E-01
       8.475839E-01   8.475839E-01   8.475839E-01
       8.475839E-01   8.475840E-07
       8.475839E-01   8.475839E-01   8.475839E-01
       8.475839E-01   8.475839E-01   8.475839E-01
       8.475839E-01   8.475839E-01   8.475839E-01   8.475839E-01   8.475839E-01   8.475839E-01
       8.475839E-01   8.475839E-01   8.475839E-01   8.475839E-01   8.475839E-01   8.475839E-01
       8.475839E-01   8.475839E-01   8.475839E-01   8.475839E-01   8.475839E-01   8.475839E-01

END GRIDDATA




