#Valley aquifer with 2 sand layers separated by silt.  Stress period 1 is natur
# conditions.  Stress period 2 adds wells.
begin options
end options

BEGIN GRIDDATA
  strt
    CONSTANT    600.     #strt Layer 1                  
END GRIDDATA
