begin options
  print_option summary
end options

begin nonlinear
	outer_dvclose 1.e-8
	outer_maximum 1000 
	under_relaxation none
end nonlinear

begin linear
	inner_dvclose 1.0e-8
	inner_rclose 0.01
	inner_maximum 1000
	linear_acceleration bicgstab
	scaling_method none
	reordering_method none
	relaxation_factor 0.97
end linear

