BEGIN DIMENSIONS
  NCELLS 150
END DIMENSIONS

BEGIN GRIDDATA
  IZONE
    constant 1
END GRIDDATA
