BEGIN OPTIONS
  FIXED_CELL
  AUXILIARY MYRCHMULT
#  AUXMULTNAME MYRCHMULT
  PRINT_FLOWS
  TS6 FILEIN flow15.rch.ts
END OPTIONS

BEGIN DIMENSIONS
  MAXBOUND 10
END DIMENSIONS

BEGIN PERIOD 1
  1 1 1  recharge 2.
  1 1 2  recharge 2.
  1 1 3  recharge 2.
  1 1 4  recharge 2.
  1 1 5  recharge 2.
  1 1 6  recharge 2.
  1 1 7  recharge 2.
  1 1 8  recharge 2.
  1 1 9  recharge 2.
  1 1 10 recharge 2.
END PERIOD

BEGIN PERIOD 2
END PERIOD

BEGIN PERIOD 3
  1 1 1  recharge 2.
  1 1 2  recharge 2.
  1 1 3  recharge 2.
  1 1 4  recharge 2.
  1 1 5  recharge 2.
  1 1 6  recharge 2.
  1 1 7  recharge 2.
  1 1 8  recharge 2.
  1 1 9  recharge 2.
  1 1 10 recharge 2.
END PERIOD

BEGIN PERIOD 4
  1 1 1  0.01 2.
  1 1 2  0.01 2.
  1 1 3  0.01 2.
  1 1 4  0.01 2.
  1 1 5  0.01 2.
  1 1 6  0.01 2.
  1 1 7  0.01 2.
  1 1 8  0.01 2.
  1 1 9  0.01 2.
  1 1 10 0.01 2.
END PERIOD
