# SMS8 input file, prepared by MF5to6 on 8/1/2016 at 14:29:17.

BEGIN Options
  PRINT_OPTION  ALL
  COMPLEXITY  SIMPLE
END Options

BEGIN Nonlinear
  OUTER_HCLOSE   0.1000000E-05
  OUTER_MAXIMUM  100
  UNDER_RELAXATION  dbd
  UNDER_RELAXATION_THETA    0.970000    
  UNDER_RELAXATION_KAPPA    1e-4  
  UNDER_RELAXATION_GAMMA    0.000000    
  UNDER_RELAXATION_MOMENTUM    0.100000    
END Nonlinear

BEGIN LINEAR
  INNER_MAXIMUM  50
  INNER_HCLOSE   0.1000000E-05
  INNER_RCLOSE   0.1000000E-05 L2NORM_RCLOSE   
  LINEAR_ACCELERATION  BICGSTAB
  PRECONDITIONER_LEVELS  3
  PRECONDITIONER_DROP_TOLERANCE   0.
  NUMBER_ORTHOGONALIZATIONS  5
  #REORDERING_METHOD  NONE
  #relaxation_factor 0.97
END LINEAR
