# OC8 input file, prepared by MF5to6 on 8/1/2016 at 14:29:17.

BEGIN Options
  HEAD FILEOUT  test036_twrihfb_nr.hds
  HEAD PRINT_FORMAT  COLUMNS 6  WIDTH 11  DIGITS 4  GENERAL
END Options

BEGIN PERIOD 1
  PRINT BUDGET ALL
  SAVE HEAD ALL
  PRINT HEAD ALL
END PERIOD
