# sms8 input file, prepared by mf5to6 on 8/1/2016 at 14:29:17.

begin options
  print_option  all
  complexity  simple
end options

begin nonlinear
  outer_dvclose   0.1000000e-05
  outer_maximum  100
  under_relaxation  dbd
  under_relaxation_theta    0.970000    
  under_relaxation_kappa    1e-4  
  under_relaxation_gamma    0.000000    
  under_relaxation_momentum    0.100000    
end nonlinear

begin linear
  inner_maximum  50
  inner_dvclose   0.1000000e-05
  inner_rclose   0.1000000e-05 l2norm_rclose   
  linear_acceleration  bicgstab
  preconditioner_levels  3
  preconditioner_drop_tolerance   0.
  number_orthogonalizations  5
  #reordering_method  none
  #relaxation_factor 0.97
end linear
