# CHD8 input file, prepared by MF5to6 on 8/1/2016 at 14:29:17.

BEGIN Options
  PRINT_INPUT
  PRINT_FLOWS
END Options

BEGIN Dimensions
  MAXBOUND  30
END Dimensions

BEGIN PERIOD 1
  1  1  1    0.0000000
  1  2  1    0.0000000
  1  3  1    0.0000000
  1  4  1    0.0000000
  1  5  1    0.0000000
  1  6  1    0.0000000
  1  7  1    0.0000000
  1  8  1    0.0000000
  1  9  1    0.0000000
  1  10  1    0.0000000
  1  11  1    0.0000000
  1  12  1    0.0000000
  1  13  1    0.0000000
  1  14  1    0.0000000
  1  15  1    0.0000000
  3  1  1    0.0000000
  3  2  1    0.0000000
  3  3  1    0.0000000
  3  4  1    0.0000000
  3  5  1    0.0000000
  3  6  1    0.0000000
  3  7  1    0.0000000
  3  8  1    0.0000000
  3  9  1    0.0000000
  3  10  1    0.0000000
  3  11  1    0.0000000
  3  12  1    0.0000000
  3  13  1    0.0000000
  3  14  1    0.0000000
  3  15  1    0.0000000
END PERIOD
