BEGIN OPTIONS
  HEAD FILEOUT Child_GN.hds
  BUDGET FILEOUT Child_GN.cbb
END OPTIONS

BEGIN PERIOD 1
  PRINT BUDGET ALL
  SAVE BUDGET ALL
  PRINT HEAD ALL
  SAVE HEAD ALL
END PERIOD

