BEGIN OPTIONS
  PRINT_INPUT
  PRINT_FLOWS
  SAVE_FLOWS
#  BOUNDNAMES  (specify name for any boundary specified as an observation boundary, if cell node or i,j,k is not used)
END OPTIONS

BEGIN DIMENSIONS
  MAXBOUND 123
END DIMENSIONS

BEGIN PERIOD 1
         1        35        77 39.952000 0.0183700   39.4520         0
         1        35        78 39.866000 0.0183700   39.3660         0
         1        36        76 40.060000 0.0183700   39.5600         0
         1        36        77 40.010000 0.0183700   39.5100         0
         1        37        74 40.267000 0.0183700   39.7670         0
         1        37        75 40.216000 0.0183700   39.7160         0
         1        37        76 40.108000 0.0183700   39.6080         0
         1        38        72 40.494000 0.0183700   39.9940         0
         1        38        73 40.409000 0.0183700   39.9090         0
         1        38        74 40.315000 0.0183700   39.8150         0
         1        39        69 40.764000 0.0183700   40.2640         0
         1        39        70 40.698000 0.0183700   40.1980         0
         1        39        71 40.602000 0.0183700   40.1020         0
         1        39        72 40.542000 0.0183700   40.0420         0
         1        40        67 40.973000 0.0183700   40.4730         0
         1        40        68 40.893000 0.0183700   40.3930         0
         1        40        69 40.815000 0.0183700   40.3150         0
         1        41        65 41.180000 0.0183700   40.6800         0
         1        41        66 41.088000 0.0183700   40.5880         0
         1        41        67 41.022000 0.0183700   40.5220         0
         1        42        63 41.385000 0.0183700   40.8850         0
         1        42        64 41.284000 0.0183700   40.7840         0
         1        42        65 41.229000 0.0183700   40.7290         0
         1        43        61 41.563000 0.0183700   41.0630         0
         1        43        62 41.483000 0.0183700   40.9830         0
         1        43        63 41.430000 0.0183700   40.9300         0
         1        44        59 41.747000 0.0183700   41.2470         0
         1        44        60 41.687000 0.0183700   41.1870         0
         1        44        61 41.614000 0.0183700   41.1140         0
         1        45        54 42.243000 0.0183700   41.7430         0
         1        45        55 42.167000 0.0183700   41.6670         0
         1        45        56 42.073000 0.0183700   41.5730         0
         1        45        57 41.980000 0.0183700   41.4800         0
         1        45        58 41.871000 0.0183700   41.3710         0
         1        45        59 41.798000 0.0183700   41.2980         0
         1        46        26 45.044000 0.0183700   44.5440         0
         1        46        27 44.980000 0.0183700   44.4800         0
         1        46        28 44.877000 0.0183700   44.3770         0
         1        46        29 44.793000 0.0183700   44.2930         0
         1        46        47 42.905000 0.0183700   42.4050         0
         1        46        48 42.820000 0.0183700   42.3200         0
         1        46        49 42.727000 0.0183700   42.2270         0
         1        46        50 42.634000 0.0183700   42.1340         0
         1        46        51 42.540000 0.0183700   42.0400         0
         1        46        52 42.447000 0.0183700   41.9470         0
         1        46        53 42.353000 0.0183700   41.8530         0
         1        46        54 42.290000 0.0183700   41.7900         0
         1        47        25 45.158000 0.0183700   44.6580         0
         1        47        26 45.113000 0.0183700   44.6130         0
         1        47        29 44.739000 0.0183700   44.2390         0
         1        47        30 44.690000 0.0183700   44.1900         0
         1        47        32 44.382000 0.0183700   43.8820         0
         1        47        33 44.327000 0.0183700   43.8270         0
         1        47        34 44.248000 0.0183700   43.7480         0
         1        47        46 43.012000 0.0183700   42.5120         0
         1        47        47 42.970000 0.0183700   42.4700         0
         1        48        24 45.271000 0.0183700   44.7710         0
         1        48        25 45.216000 0.0183700   44.7160         0
         1        48        30 44.626000 0.0183700   44.1260         0
         1        48        31 44.526000 0.0183700   44.0260         0
         1        48        32 44.437000 0.0183700   43.9370         0
         1        48        34 44.200000 0.0183700   43.7000         0
         1        48        35 44.125000 0.0183700   43.6250         0
         1        48        36 44.055000 0.0183700   43.5550         0
         1        48        45 43.126000 0.0183700   42.6260         0
         1        48        46 43.069000 0.0183700   42.5690         0
         1        49        23 45.385000 0.0183700   44.8850         0
         1        49        24 45.329000 0.0183700   44.8290         0
         1        49        36 44.003000 0.0183700   43.5030         0
         1        49        37 43.940000 0.0183700   43.4400         0
         1        49        38 43.833000 0.0183700   43.3330         0
         1        49        39 43.748000 0.0183700   43.2480         0
         1        49        40 43.646000 0.0183700   43.1460         0
         1        49        41 43.553000 0.0183700   43.0530         0
         1        49        42 43.460000 0.0183700   42.9600         0
         1        49        43 43.366000 0.0183700   42.8660         0
         1        49        44 43.259000 0.0183700   42.7590         0
         1        49        45 43.183000 0.0183700   42.6830         0
         1        50        22 45.498000 0.0183700   44.9980         0
         1        50        23 45.434000 0.0183700   44.9340         0
         1        51        21 45.610000 0.0183700   45.1100         0
         1        51        22 45.568000 0.0183700   45.0680         0
         1        52        21 45.659000 0.0183700   45.1590         0
         1        53        20 45.774000 0.0183700   45.2740         0
         1        53        21 45.725000 0.0183700   45.2250         0
         1        54        19 45.889000 0.0183700   45.3890         0
         1        54        20 45.831000 0.0183700   45.3310         0
         1        55        18 46.004000 0.0183700   45.5040         0
         1        55        19 45.946000 0.0183700   45.4460         0
         1        56        17 46.119000 0.0183700   45.6190         0
         1        56        18 46.061000 0.0183700   45.5610         0
         1        57        16 46.234000 0.0183700   45.7340         0
         1        57        17 46.176000 0.0183700   45.6760         0
         1        58        15 46.349000 0.0183700   45.8490         0
         1        58        16 46.291000 0.0183700   45.7910         0
         1        59        14 46.464000 0.0183700   45.9640         0
         1        59        15 46.406000 0.0183700   45.9060         0
         1        60        13 46.579000 0.0183700   46.0790         0
         1        60        14 46.521000 0.0183700   46.0210         0
         1        61        12 46.694000 0.0183700   46.1940         0
         1        61        13 46.636000 0.0183700   46.1360         0
         1        62        11 46.809000 0.0183700   46.3090         0
         1        62        12 46.751000 0.0183700   46.2510         0
         1        63        10 46.924000 0.0183700   46.4240         0
         1        63        11 46.865000 0.0183700   46.3650         0
         1        64         9 47.039000 0.0183700   46.5390         0
         1        64        10 46.980000 0.0183700   46.4800         0
         1        65         8 47.154000 0.0183700   46.6540         0
         1        65         9 47.095000 0.0183700   46.5950         0
         1        66         7 47.269000 0.0183700   46.7690         0
         1        66         8 47.210000 0.0183700   46.7100         0
         1        67         6 47.384000 0.0183700   46.8840         0
         1        67         7 47.325000 0.0183700   46.8250         0
         1        68         5 47.505000 0.0183700   47.0050         0
         1        68         6 47.440000 0.0183700   46.9400         0
         1        69         3 47.679000 0.0183700   47.1790         0
         1        69         4 47.620000 0.0183700   47.1200         0
         1        69         5 47.556000 0.0183700   47.0560         0
         1        70         2 47.801000 0.0183700   47.3010         0
         1        70         3 47.732000 0.0183700   47.2320         0
         1        71         1 47.924000 0.0183700   47.4240         0
         1        71         2 47.854000 0.0183700   47.3540         0
         1        72         1 47.977000 0.0183700   47.4770         0
END PERIOD