BEGIN OPTIONS
END OPTIONS

BEGIN GRIDDATA
  STRT
  CONSTANT 90.
END GRIDDATA

