BEGIN OPTIONS
#none
END OPTIONS

BEGIN TIMING
  TDIS6 simulation.tdis
END TIMING

BEGIN MODELS
  #modeltype    namefile            modelname
         GWF6    TM9_parent_GN.nam      PARENT
         GWF6         Child_GN.nam       CHILD
END MODELS

BEGIN EXCHANGES
  GWF6-GWF6 parent-child.gwfexg PARENT CHILD
END EXCHANGES

#implicit coupling
BEGIN SOLUTIONGROUP 1
  MXITER 1
  IMS6 TM9_global.ims PARENT CHILD
END SOLUTIONGROUP

#explicit coupling
#BEGIN SOLUTIONGROUP 1
#  MXITER 10
#  IMS6    TM9_global.ims PARENT
#  IMS6      Child_GN.ims CHILD
#END SOLUTIONGROUP

