BEGIN OPTIONS
  PRINT_INPUT
  SAVE_FLOWS
  #GHOST_NODES
  #FLOW_TOLERANCE 0.01  for explicit exchanges, has no effect for implicit
  #HEAD_TOLERANCE 0.01  for explicit exchanges; has no effect for implicit
END OPTIONS


BEGIN DIMENSIONS
   NEXG 8400
END DIMENSIONS

BEGIN EXCHANGEDATA
   1 19 16  1 1 1  2 37.5 12.5 35.2820222
   1 19 16  1 1 2  2 37.5 12.5 35.14414468
   1 19 16  1 1 3  2 37.5 12.5 35.00626716
   1 19 17  1 1 4  2 37.5 12.5 35.14010368
   1 19 17  1 1 5  2 37.5 12.5 35.12679383
   1 19 17  1 1 6  2 37.5 12.5 35.1141845
   1 19 18  1 1 7  2 37.5 12.5 35.18386334
   1 19 18  1 1 8  2 37.5 12.5 35.21053054
   1 19 18  1 1 9  2 37.5 12.5 35.23719774
   1 19 19  1 1 10  2 37.5 12.5 35.20335836
   1 19 19  1 1 11  2 37.5 12.5 35.40531906
   1 19 19  1 1 12  2 37.5 12.5 35.60727977
   1 19 20  1 1 13  2 37.5 12.5 35.58390237
   1 19 20  1 1 14  2 37.5 12.5 35.54348908
   1 19 20  1 1 15  2 37.5 12.5 35.50377257
   1 19 21  1 1 16  2 37.5 12.5 35.5143574
   1 19 21  1 1 17  2 37.5 12.5 35.55826596
   1 19 21  1 1 18  2 37.5 12.5 35.60217452
   1 19 22  1 1 19  2 37.5 12.5 35.72246581
   1 19 22  1 1 20  2 37.5 12.5 35.53256452
   1 19 22  1 1 21  2 37.5 12.5 35.34266322
   1 19 23  1 1 22  2 37.5 12.5 35.71787953
   1 19 23  1 1 23  2 37.5 12.5 35.72071981
   1 19 23  1 1 24  2 37.5 12.5 35.72427015
   1 19 24  1 1 25  2 37.5 12.5 35.58122236
   1 19 24  1 1 26  2 37.5 12.5 35.93657016
   1 19 24  1 1 27  2 37.5 12.5 36.29262163
   1 19 25  1 1 28  2 37.5 12.5 35.97268343
   1 19 25  1 1 29  2 37.5 12.5 36.20582306
   1 19 25  1 1 30  2 37.5 12.5 36.43965449
   1 19 26  1 1 31  2 37.5 12.5 36.85425802
   1 19 26  1 1 32  2 37.5 12.5 36.165071
   1 19 26  1 1 33  2 37.5 12.5 35.47658796
   1 19 27  1 1 34  2 37.5 12.5 35
   1 19 27  1 1 35  2 37.5 12.5 35.66962972
   1 19 27  1 1 36  2 37.5 12.5 36.59955652
   1 19 28  1 1 37  2 37.5 12.5 35.51991233
   1 19 28  1 1 38  2 37.5 12.5 35.79527574
   1 19 28  1 1 39  2 37.5 12.5 36.07063914
   1 19 29  1 1 40  2 37.5 12.5 36.46999735
   1 19 29  1 1 41  2 37.5 12.5 36.14030931
   1 19 29  1 1 42  2 37.5 12.5 35.81062128
   1 19 30  1 1 43  2 37.5 12.5 36.70202934
   1 19 30  1 1 44  2 37.5 12.5 36.1404216
   1 19 30  1 1 45  2 37.5 12.5 35.57812561
   1 19 31  1 1 46  2 37.5 12.5 36.93820108
   1 19 31  1 1 47  2 37.5 12.5 35.96326258
   1 19 31  1 1 48  2 37.5 12.5 35
   1 19 32  1 1 49  2 37.5 12.5 36.56812138
   1 19 32  1 1 50  2 37.5 12.5 35.75316753
   1 19 32  1 1 51  2 37.5 12.5 35
   1 19 33  1 1 52  2 37.5 12.5 36.46974613
   1 19 33  1 1 53  2 37.5 12.5 35.66973659
   1 19 33  1 1 54  2 37.5 12.5 35
   1 19 34  1 1 55  2 37.5 12.5 35
   1 19 34  1 1 56  2 37.5 12.5 35.4246173
   1 19 34  1 1 57  2 37.5 12.5 36.038975
   1 19 35  1 1 58  2 37.5 12.5 35.01522192
   1 19 35  1 1 59  2 37.5 12.5 35.37093415
   1 19 35  1 1 60  2 37.5 12.5 35.72664637
   1 19 36  1 1 61  2 37.5 12.5 35.36829653
   1 19 36  1 1 62  2 37.5 12.5 35.41640379
   1 19 36  1 1 63  2 37.5 12.5 35.46451104
   1 19 37  1 1 64  2 37.5 12.5 36.54533814
   1 19 37  1 1 65  2 37.5 12.5 35
   1 19 37  1 1 66  2 37.5 12.5 35
   1 19 38  1 1 67  2 37.5 12.5 35.1285491
   1 19 38  1 1 68  2 37.5 12.5 35
   1 19 38  1 1 69  2 37.5 12.5 35
   1 19 39  1 1 70  2 37.5 12.5 35
   1 19 39  1 1 71  2 37.5 12.5 35
   1 19 39  1 1 72  2 37.5 12.5 35
   1 19 40  1 1 73  2 37.5 12.5 35
   1 19 40  1 1 74  2 37.5 12.5 35
   1 19 40  1 1 75  2 37.5 12.5 35
   1 19 41  1 1 76  2 37.5 12.5 35
   1 19 41  1 1 77  2 37.5 12.5 35
   1 19 41  1 1 78  2 37.5 12.5 35
   2 19 16  2 1 1  2 37.5 12.5 35
   2 19 16  2 1 2  2 37.5 12.5 35
   2 19 16  2 1 3  2 37.5 12.5 35
   2 19 17  2 1 4  2 37.5 12.5 35
   2 19 17  2 1 5  2 37.5 12.5 35
   2 19 17  2 1 6  2 37.5 12.5 35
   2 19 18  2 1 7  2 37.5 12.5 35
   2 19 18  2 1 8  2 37.5 12.5 35
   2 19 18  2 1 9  2 37.5 12.5 35
   2 19 19  2 1 10  2 37.5 12.5 35
   2 19 19  2 1 11  2 37.5 12.5 35
   2 19 19  2 1 12  2 37.5 12.5 35
   2 19 20  2 1 13  2 37.5 12.5 35
   2 19 20  2 1 14  2 37.5 12.5 35
   2 19 20  2 1 15  2 37.5 12.5 35
   2 19 21  2 1 16  2 37.5 12.5 35
   2 19 21  2 1 17  2 37.5 12.5 35
   2 19 21  2 1 18  2 37.5 12.5 35
   2 19 22  2 1 19  2 37.5 12.5 35
   2 19 22  2 1 20  2 37.5 12.5 35
   2 19 22  2 1 21  2 37.5 12.5 35
   2 19 23  2 1 22  2 37.5 12.5 35
   2 19 23  2 1 23  2 37.5 12.5 35
   2 19 23  2 1 24  2 37.5 12.5 35
   2 19 24  2 1 25  2 37.5 12.5 35
   2 19 24  2 1 26  2 37.5 12.5 35
   2 19 24  2 1 27  2 37.5 12.5 35
   2 19 25  2 1 28  2 37.5 12.5 35
   2 19 25  2 1 29  2 37.5 12.5 35
   2 19 25  2 1 30  2 37.5 12.5 35
   2 19 26  2 1 31  2 37.5 12.5 35
   2 19 26  2 1 32  2 37.5 12.5 35
   2 19 26  2 1 33  2 37.5 12.5 35
   2 19 27  2 1 34  2 37.5 12.5 35
   2 19 27  2 1 35  2 37.5 12.5 35
   2 19 27  2 1 36  2 37.5 12.5 35
   2 19 28  2 1 37  2 37.5 12.5 35
   2 19 28  2 1 38  2 37.5 12.5 35
   2 19 28  2 1 39  2 37.5 12.5 35
   2 19 29  2 1 40  2 37.5 12.5 35
   2 19 29  2 1 41  2 37.5 12.5 35
   2 19 29  2 1 42  2 37.5 12.5 35
   2 19 30  2 1 43  2 37.5 12.5 35
   2 19 30  2 1 44  2 37.5 12.5 35
   2 19 30  2 1 45  2 37.5 12.5 35
   2 19 31  2 1 46  2 37.5 12.5 35
   2 19 31  2 1 47  2 37.5 12.5 35
   2 19 31  2 1 48  2 37.5 12.5 35
   2 19 32  2 1 49  2 37.5 12.5 35
   2 19 32  2 1 50  2 37.5 12.5 35
   2 19 32  2 1 51  2 37.5 12.5 35
   2 19 33  2 1 52  2 37.5 12.5 35
   2 19 33  2 1 53  2 37.5 12.5 35
   2 19 33  2 1 54  2 37.5 12.5 35
   2 19 34  2 1 55  2 37.5 12.5 35
   2 19 34  2 1 56  2 37.5 12.5 35
   2 19 34  2 1 57  2 37.5 12.5 35
   2 19 35  2 1 58  2 37.5 12.5 35
   2 19 35  2 1 59  2 37.5 12.5 35
   2 19 35  2 1 60  2 37.5 12.5 35
   2 19 36  2 1 61  2 37.5 12.5 35
   2 19 36  2 1 62  2 37.5 12.5 35
   2 19 36  2 1 63  2 37.5 12.5 35
   2 19 37  2 1 64  2 37.5 12.5 35
   2 19 37  2 1 65  2 37.5 12.5 35
   2 19 37  2 1 66  2 37.5 12.5 35
   2 19 38  2 1 67  2 37.5 12.5 35
   2 19 38  2 1 68  2 37.5 12.5 35
   2 19 38  2 1 69  2 37.5 12.5 35
   2 19 39  2 1 70  2 37.5 12.5 35
   2 19 39  2 1 71  2 37.5 12.5 35
   2 19 39  2 1 72  2 37.5 12.5 35
   2 19 40  2 1 73  2 37.5 12.5 35
   2 19 40  2 1 74  2 37.5 12.5 35
   2 19 40  2 1 75  2 37.5 12.5 35
   2 19 41  2 1 76  2 37.5 12.5 35
   2 19 41  2 1 77  2 37.5 12.5 35
   2 19 41  2 1 78  2 37.5 12.5 35
   2 19 16  3 1 1  2 37.5 12.5 35
   2 19 16  3 1 2  2 37.5 12.5 35
   2 19 16  3 1 3  2 37.5 12.5 35
   2 19 17  3 1 4  2 37.5 12.5 35
   2 19 17  3 1 5  2 37.5 12.5 35
   2 19 17  3 1 6  2 37.5 12.5 35
   2 19 18  3 1 7  2 37.5 12.5 35
   2 19 18  3 1 8  2 37.5 12.5 35
   2 19 18  3 1 9  2 37.5 12.5 35
   2 19 19  3 1 10  2 37.5 12.5 35
   2 19 19  3 1 11  2 37.5 12.5 35
   2 19 19  3 1 12  2 37.5 12.5 35
   2 19 20  3 1 13  2 37.5 12.5 35
   2 19 20  3 1 14  2 37.5 12.5 35
   2 19 20  3 1 15  2 37.5 12.5 35
   2 19 21  3 1 16  2 37.5 12.5 35
   2 19 21  3 1 17  2 37.5 12.5 35
   2 19 21  3 1 18  2 37.5 12.5 35
   2 19 22  3 1 19  2 37.5 12.5 35
   2 19 22  3 1 20  2 37.5 12.5 35
   2 19 22  3 1 21  2 37.5 12.5 35
   2 19 23  3 1 22  2 37.5 12.5 35
   2 19 23  3 1 23  2 37.5 12.5 35
   2 19 23  3 1 24  2 37.5 12.5 35
   2 19 24  3 1 25  2 37.5 12.5 35
   2 19 24  3 1 26  2 37.5 12.5 35
   2 19 24  3 1 27  2 37.5 12.5 35
   2 19 25  3 1 28  2 37.5 12.5 35
   2 19 25  3 1 29  2 37.5 12.5 35
   2 19 25  3 1 30  2 37.5 12.5 35
   2 19 26  3 1 31  2 37.5 12.5 35
   2 19 26  3 1 32  2 37.5 12.5 35
   2 19 26  3 1 33  2 37.5 12.5 35
   2 19 27  3 1 34  2 37.5 12.5 35
   2 19 27  3 1 35  2 37.5 12.5 35
   2 19 27  3 1 36  2 37.5 12.5 35
   2 19 28  3 1 37  2 37.5 12.5 35
   2 19 28  3 1 38  2 37.5 12.5 35
   2 19 28  3 1 39  2 37.5 12.5 35
   2 19 29  3 1 40  2 37.5 12.5 35
   2 19 29  3 1 41  2 37.5 12.5 35
   2 19 29  3 1 42  2 37.5 12.5 35
   2 19 30  3 1 43  2 37.5 12.5 35
   2 19 30  3 1 44  2 37.5 12.5 35
   2 19 30  3 1 45  2 37.5 12.5 35
   2 19 31  3 1 46  2 37.5 12.5 35
   2 19 31  3 1 47  2 37.5 12.5 35
   2 19 31  3 1 48  2 37.5 12.5 35
   2 19 32  3 1 49  2 37.5 12.5 35
   2 19 32  3 1 50  2 37.5 12.5 35
   2 19 32  3 1 51  2 37.5 12.5 35
   2 19 33  3 1 52  2 37.5 12.5 35
   2 19 33  3 1 53  2 37.5 12.5 35
   2 19 33  3 1 54  2 37.5 12.5 35
   2 19 34  3 1 55  2 37.5 12.5 35
   2 19 34  3 1 56  2 37.5 12.5 35
   2 19 34  3 1 57  2 37.5 12.5 35
   2 19 35  3 1 58  2 37.5 12.5 35
   2 19 35  3 1 59  2 37.5 12.5 35
   2 19 35  3 1 60  2 37.5 12.5 35
   2 19 36  3 1 61  2 37.5 12.5 35
   2 19 36  3 1 62  2 37.5 12.5 35
   2 19 36  3 1 63  2 37.5 12.5 35
   2 19 37  3 1 64  2 37.5 12.5 35
   2 19 37  3 1 65  2 37.5 12.5 35
   2 19 37  3 1 66  2 37.5 12.5 35
   2 19 38  3 1 67  2 37.5 12.5 35
   2 19 38  3 1 68  2 37.5 12.5 35
   2 19 38  3 1 69  2 37.5 12.5 35
   2 19 39  3 1 70  2 37.5 12.5 35
   2 19 39  3 1 71  2 37.5 12.5 35
   2 19 39  3 1 72  2 37.5 12.5 35
   2 19 40  3 1 73  2 37.5 12.5 35
   2 19 40  3 1 74  2 37.5 12.5 35
   2 19 40  3 1 75  2 37.5 12.5 35
   2 19 41  3 1 76  2 37.5 12.5 35
   2 19 41  3 1 77  2 37.5 12.5 35
   2 19 41  3 1 78  2 37.5 12.5 35
   2 19 16  4 1 1  2 37.5 12.5 35
   2 19 16  4 1 2  2 37.5 12.5 35
   2 19 16  4 1 3  2 37.5 12.5 35
   2 19 17  4 1 4  2 37.5 12.5 35
   2 19 17  4 1 5  2 37.5 12.5 35
   2 19 17  4 1 6  2 37.5 12.5 35
   2 19 18  4 1 7  2 37.5 12.5 35
   2 19 18  4 1 8  2 37.5 12.5 35
   2 19 18  4 1 9  2 37.5 12.5 35
   2 19 19  4 1 10  2 37.5 12.5 35
   2 19 19  4 1 11  2 37.5 12.5 35
   2 19 19  4 1 12  2 37.5 12.5 35
   2 19 20  4 1 13  2 37.5 12.5 35
   2 19 20  4 1 14  2 37.5 12.5 35
   2 19 20  4 1 15  2 37.5 12.5 35
   2 19 21  4 1 16  2 37.5 12.5 35
   2 19 21  4 1 17  2 37.5 12.5 35
   2 19 21  4 1 18  2 37.5 12.5 35
   2 19 22  4 1 19  2 37.5 12.5 35
   2 19 22  4 1 20  2 37.5 12.5 35
   2 19 22  4 1 21  2 37.5 12.5 35
   2 19 23  4 1 22  2 37.5 12.5 35
   2 19 23  4 1 23  2 37.5 12.5 35
   2 19 23  4 1 24  2 37.5 12.5 35
   2 19 24  4 1 25  2 37.5 12.5 35
   2 19 24  4 1 26  2 37.5 12.5 35
   2 19 24  4 1 27  2 37.5 12.5 35
   2 19 25  4 1 28  2 37.5 12.5 35
   2 19 25  4 1 29  2 37.5 12.5 35
   2 19 25  4 1 30  2 37.5 12.5 35
   2 19 26  4 1 31  2 37.5 12.5 35
   2 19 26  4 1 32  2 37.5 12.5 35
   2 19 26  4 1 33  2 37.5 12.5 35
   2 19 27  4 1 34  2 37.5 12.5 35
   2 19 27  4 1 35  2 37.5 12.5 35
   2 19 27  4 1 36  2 37.5 12.5 35
   2 19 28  4 1 37  2 37.5 12.5 35
   2 19 28  4 1 38  2 37.5 12.5 35
   2 19 28  4 1 39  2 37.5 12.5 35
   2 19 29  4 1 40  2 37.5 12.5 35
   2 19 29  4 1 41  2 37.5 12.5 35
   2 19 29  4 1 42  2 37.5 12.5 35
   2 19 30  4 1 43  2 37.5 12.5 35
   2 19 30  4 1 44  2 37.5 12.5 35
   2 19 30  4 1 45  2 37.5 12.5 35
   2 19 31  4 1 46  2 37.5 12.5 35
   2 19 31  4 1 47  2 37.5 12.5 35
   2 19 31  4 1 48  2 37.5 12.5 35
   2 19 32  4 1 49  2 37.5 12.5 35
   2 19 32  4 1 50  2 37.5 12.5 35
   2 19 32  4 1 51  2 37.5 12.5 35
   2 19 33  4 1 52  2 37.5 12.5 35
   2 19 33  4 1 53  2 37.5 12.5 35
   2 19 33  4 1 54  2 37.5 12.5 35
   2 19 34  4 1 55  2 37.5 12.5 35
   2 19 34  4 1 56  2 37.5 12.5 35
   2 19 34  4 1 57  2 37.5 12.5 35
   2 19 35  4 1 58  2 37.5 12.5 35
   2 19 35  4 1 59  2 37.5 12.5 35
   2 19 35  4 1 60  2 37.5 12.5 35
   2 19 36  4 1 61  2 37.5 12.5 35
   2 19 36  4 1 62  2 37.5 12.5 35
   2 19 36  4 1 63  2 37.5 12.5 35
   2 19 37  4 1 64  2 37.5 12.5 35
   2 19 37  4 1 65  2 37.5 12.5 35
   2 19 37  4 1 66  2 37.5 12.5 35
   2 19 38  4 1 67  2 37.5 12.5 35
   2 19 38  4 1 68  2 37.5 12.5 35
   2 19 38  4 1 69  2 37.5 12.5 35
   2 19 39  4 1 70  2 37.5 12.5 35
   2 19 39  4 1 71  2 37.5 12.5 35
   2 19 39  4 1 72  2 37.5 12.5 35
   2 19 40  4 1 73  2 37.5 12.5 35
   2 19 40  4 1 74  2 37.5 12.5 35
   2 19 40  4 1 75  2 37.5 12.5 35
   2 19 41  4 1 76  2 37.5 12.5 35
   2 19 41  4 1 77  2 37.5 12.5 35
   2 19 41  4 1 78  2 37.5 12.5 35
   3 19 16  5 1 1  2 37.5 12.5 35
   3 19 16  5 1 2  2 37.5 12.5 35
   3 19 16  5 1 3  2 37.5 12.5 35
   3 19 17  5 1 4  2 37.5 12.5 35
   3 19 17  5 1 5  2 37.5 12.5 35
   3 19 17  5 1 6  2 37.5 12.5 35
   3 19 18  5 1 7  2 37.5 12.5 35
   3 19 18  5 1 8  2 37.5 12.5 35
   3 19 18  5 1 9  2 37.5 12.5 35
   3 19 19  5 1 10  2 37.5 12.5 35
   3 19 19  5 1 11  2 37.5 12.5 35
   3 19 19  5 1 12  2 37.5 12.5 35
   3 19 20  5 1 13  2 37.5 12.5 35
   3 19 20  5 1 14  2 37.5 12.5 35
   3 19 20  5 1 15  2 37.5 12.5 35
   3 19 21  5 1 16  2 37.5 12.5 35
   3 19 21  5 1 17  2 37.5 12.5 35
   3 19 21  5 1 18  2 37.5 12.5 35
   3 19 22  5 1 19  2 37.5 12.5 35
   3 19 22  5 1 20  2 37.5 12.5 35
   3 19 22  5 1 21  2 37.5 12.5 35
   3 19 23  5 1 22  2 37.5 12.5 35
   3 19 23  5 1 23  2 37.5 12.5 35
   3 19 23  5 1 24  2 37.5 12.5 35
   3 19 24  5 1 25  2 37.5 12.5 35
   3 19 24  5 1 26  2 37.5 12.5 35
   3 19 24  5 1 27  2 37.5 12.5 35
   3 19 25  5 1 28  2 37.5 12.5 35
   3 19 25  5 1 29  2 37.5 12.5 35
   3 19 25  5 1 30  2 37.5 12.5 35
   3 19 26  5 1 31  2 37.5 12.5 35
   3 19 26  5 1 32  2 37.5 12.5 35
   3 19 26  5 1 33  2 37.5 12.5 35
   3 19 27  5 1 34  2 37.5 12.5 35
   3 19 27  5 1 35  2 37.5 12.5 35
   3 19 27  5 1 36  2 37.5 12.5 35
   3 19 28  5 1 37  2 37.5 12.5 35
   3 19 28  5 1 38  2 37.5 12.5 35
   3 19 28  5 1 39  2 37.5 12.5 35
   3 19 29  5 1 40  2 37.5 12.5 35
   3 19 29  5 1 41  2 37.5 12.5 35
   3 19 29  5 1 42  2 37.5 12.5 35
   3 19 30  5 1 43  2 37.5 12.5 35
   3 19 30  5 1 44  2 37.5 12.5 35
   3 19 30  5 1 45  2 37.5 12.5 35
   3 19 31  5 1 46  2 37.5 12.5 35
   3 19 31  5 1 47  2 37.5 12.5 35
   3 19 31  5 1 48  2 37.5 12.5 35
   3 19 32  5 1 49  2 37.5 12.5 35
   3 19 32  5 1 50  2 37.5 12.5 35
   3 19 32  5 1 51  2 37.5 12.5 35
   3 19 33  5 1 52  2 37.5 12.5 35
   3 19 33  5 1 53  2 37.5 12.5 35
   3 19 33  5 1 54  2 37.5 12.5 35
   3 19 34  5 1 55  2 37.5 12.5 35
   3 19 34  5 1 56  2 37.5 12.5 35
   3 19 34  5 1 57  2 37.5 12.5 35
   3 19 35  5 1 58  2 37.5 12.5 35
   3 19 35  5 1 59  2 37.5 12.5 35
   3 19 35  5 1 60  2 37.5 12.5 35
   3 19 36  5 1 61  2 37.5 12.5 35
   3 19 36  5 1 62  2 37.5 12.5 35
   3 19 36  5 1 63  2 37.5 12.5 35
   3 19 37  5 1 64  2 37.5 12.5 35
   3 19 37  5 1 65  2 37.5 12.5 35
   3 19 37  5 1 66  2 37.5 12.5 35
   3 19 38  5 1 67  2 37.5 12.5 35
   3 19 38  5 1 68  2 37.5 12.5 35
   3 19 38  5 1 69  2 37.5 12.5 35
   3 19 39  5 1 70  2 37.5 12.5 35
   3 19 39  5 1 71  2 37.5 12.5 35
   3 19 39  5 1 72  2 37.5 12.5 35
   3 19 40  5 1 73  2 37.5 12.5 35
   3 19 40  5 1 74  2 37.5 12.5 35
   3 19 40  5 1 75  2 37.5 12.5 35
   3 19 41  5 1 76  2 37.5 12.5 35
   3 19 41  5 1 77  2 37.5 12.5 35
   3 19 41  5 1 78  2 37.5 12.5 35
   3 19 16  6 1 1  2 37.5 12.5 35
   3 19 16  6 1 2  2 37.5 12.5 35
   3 19 16  6 1 3  2 37.5 12.5 35
   3 19 17  6 1 4  2 37.5 12.5 35
   3 19 17  6 1 5  2 37.5 12.5 35
   3 19 17  6 1 6  2 37.5 12.5 35
   3 19 18  6 1 7  2 37.5 12.5 35
   3 19 18  6 1 8  2 37.5 12.5 35
   3 19 18  6 1 9  2 37.5 12.5 35
   3 19 19  6 1 10  2 37.5 12.5 35
   3 19 19  6 1 11  2 37.5 12.5 35
   3 19 19  6 1 12  2 37.5 12.5 35
   3 19 20  6 1 13  2 37.5 12.5 35
   3 19 20  6 1 14  2 37.5 12.5 35
   3 19 20  6 1 15  2 37.5 12.5 35
   3 19 21  6 1 16  2 37.5 12.5 35
   3 19 21  6 1 17  2 37.5 12.5 35
   3 19 21  6 1 18  2 37.5 12.5 35
   3 19 22  6 1 19  2 37.5 12.5 35
   3 19 22  6 1 20  2 37.5 12.5 35
   3 19 22  6 1 21  2 37.5 12.5 35
   3 19 23  6 1 22  2 37.5 12.5 35
   3 19 23  6 1 23  2 37.5 12.5 35
   3 19 23  6 1 24  2 37.5 12.5 35
   3 19 24  6 1 25  2 37.5 12.5 35
   3 19 24  6 1 26  2 37.5 12.5 35
   3 19 24  6 1 27  2 37.5 12.5 35
   3 19 25  6 1 28  2 37.5 12.5 35
   3 19 25  6 1 29  2 37.5 12.5 35
   3 19 25  6 1 30  2 37.5 12.5 35
   3 19 26  6 1 31  2 37.5 12.5 35
   3 19 26  6 1 32  2 37.5 12.5 35
   3 19 26  6 1 33  2 37.5 12.5 35
   3 19 27  6 1 34  2 37.5 12.5 35
   3 19 27  6 1 35  2 37.5 12.5 35
   3 19 27  6 1 36  2 37.5 12.5 35
   3 19 28  6 1 37  2 37.5 12.5 35
   3 19 28  6 1 38  2 37.5 12.5 35
   3 19 28  6 1 39  2 37.5 12.5 35
   3 19 29  6 1 40  2 37.5 12.5 35
   3 19 29  6 1 41  2 37.5 12.5 35
   3 19 29  6 1 42  2 37.5 12.5 35
   3 19 30  6 1 43  2 37.5 12.5 35
   3 19 30  6 1 44  2 37.5 12.5 35
   3 19 30  6 1 45  2 37.5 12.5 35
   3 19 31  6 1 46  2 37.5 12.5 35
   3 19 31  6 1 47  2 37.5 12.5 35
   3 19 31  6 1 48  2 37.5 12.5 35
   3 19 32  6 1 49  2 37.5 12.5 35
   3 19 32  6 1 50  2 37.5 12.5 35
   3 19 32  6 1 51  2 37.5 12.5 35
   3 19 33  6 1 52  2 37.5 12.5 35
   3 19 33  6 1 53  2 37.5 12.5 35
   3 19 33  6 1 54  2 37.5 12.5 35
   3 19 34  6 1 55  2 37.5 12.5 35
   3 19 34  6 1 56  2 37.5 12.5 35
   3 19 34  6 1 57  2 37.5 12.5 35
   3 19 35  6 1 58  2 37.5 12.5 35
   3 19 35  6 1 59  2 37.5 12.5 35
   3 19 35  6 1 60  2 37.5 12.5 35
   3 19 36  6 1 61  2 37.5 12.5 35
   3 19 36  6 1 62  2 37.5 12.5 35
   3 19 36  6 1 63  2 37.5 12.5 35
   3 19 37  6 1 64  2 37.5 12.5 35
   3 19 37  6 1 65  2 37.5 12.5 35
   3 19 37  6 1 66  2 37.5 12.5 35
   3 19 38  6 1 67  2 37.5 12.5 35
   3 19 38  6 1 68  2 37.5 12.5 35
   3 19 38  6 1 69  2 37.5 12.5 35
   3 19 39  6 1 70  2 37.5 12.5 35
   3 19 39  6 1 71  2 37.5 12.5 35
   3 19 39  6 1 72  2 37.5 12.5 35
   3 19 40  6 1 73  2 37.5 12.5 35
   3 19 40  6 1 74  2 37.5 12.5 35
   3 19 40  6 1 75  2 37.5 12.5 35
   3 19 41  6 1 76  2 37.5 12.5 35
   3 19 41  6 1 77  2 37.5 12.5 35
   3 19 41  6 1 78  2 37.5 12.5 35
   3 19 16  7 1 1  2 37.5 12.5 35
   3 19 16  7 1 2  2 37.5 12.5 35
   3 19 16  7 1 3  2 37.5 12.5 35
   3 19 17  7 1 4  2 37.5 12.5 35
   3 19 17  7 1 5  2 37.5 12.5 35
   3 19 17  7 1 6  2 37.5 12.5 35
   3 19 18  7 1 7  2 37.5 12.5 35
   3 19 18  7 1 8  2 37.5 12.5 35
   3 19 18  7 1 9  2 37.5 12.5 35
   3 19 19  7 1 10  2 37.5 12.5 35
   3 19 19  7 1 11  2 37.5 12.5 35
   3 19 19  7 1 12  2 37.5 12.5 35
   3 19 20  7 1 13  2 37.5 12.5 35
   3 19 20  7 1 14  2 37.5 12.5 35
   3 19 20  7 1 15  2 37.5 12.5 35
   3 19 21  7 1 16  2 37.5 12.5 35
   3 19 21  7 1 17  2 37.5 12.5 35
   3 19 21  7 1 18  2 37.5 12.5 35
   3 19 22  7 1 19  2 37.5 12.5 35
   3 19 22  7 1 20  2 37.5 12.5 35
   3 19 22  7 1 21  2 37.5 12.5 35
   3 19 23  7 1 22  2 37.5 12.5 35
   3 19 23  7 1 23  2 37.5 12.5 35
   3 19 23  7 1 24  2 37.5 12.5 35
   3 19 24  7 1 25  2 37.5 12.5 35
   3 19 24  7 1 26  2 37.5 12.5 35
   3 19 24  7 1 27  2 37.5 12.5 35
   3 19 25  7 1 28  2 37.5 12.5 35
   3 19 25  7 1 29  2 37.5 12.5 35
   3 19 25  7 1 30  2 37.5 12.5 35
   3 19 26  7 1 31  2 37.5 12.5 35
   3 19 26  7 1 32  2 37.5 12.5 35
   3 19 26  7 1 33  2 37.5 12.5 35
   3 19 27  7 1 34  2 37.5 12.5 35
   3 19 27  7 1 35  2 37.5 12.5 35
   3 19 27  7 1 36  2 37.5 12.5 35
   3 19 28  7 1 37  2 37.5 12.5 35
   3 19 28  7 1 38  2 37.5 12.5 35
   3 19 28  7 1 39  2 37.5 12.5 35
   3 19 29  7 1 40  2 37.5 12.5 35
   3 19 29  7 1 41  2 37.5 12.5 35
   3 19 29  7 1 42  2 37.5 12.5 35
   3 19 30  7 1 43  2 37.5 12.5 35
   3 19 30  7 1 44  2 37.5 12.5 35
   3 19 30  7 1 45  2 37.5 12.5 35
   3 19 31  7 1 46  2 37.5 12.5 35
   3 19 31  7 1 47  2 37.5 12.5 35
   3 19 31  7 1 48  2 37.5 12.5 35
   3 19 32  7 1 49  2 37.5 12.5 35
   3 19 32  7 1 50  2 37.5 12.5 35
   3 19 32  7 1 51  2 37.5 12.5 35
   3 19 33  7 1 52  2 37.5 12.5 35
   3 19 33  7 1 53  2 37.5 12.5 35
   3 19 33  7 1 54  2 37.5 12.5 35
   3 19 34  7 1 55  2 37.5 12.5 35
   3 19 34  7 1 56  2 37.5 12.5 35
   3 19 34  7 1 57  2 37.5 12.5 35
   3 19 35  7 1 58  2 37.5 12.5 35
   3 19 35  7 1 59  2 37.5 12.5 35
   3 19 35  7 1 60  2 37.5 12.5 35
   3 19 36  7 1 61  2 37.5 12.5 35
   3 19 36  7 1 62  2 37.5 12.5 35
   3 19 36  7 1 63  2 37.5 12.5 35
   3 19 37  7 1 64  2 37.5 12.5 35
   3 19 37  7 1 65  2 37.5 12.5 35
   3 19 37  7 1 66  2 37.5 12.5 35
   3 19 38  7 1 67  2 37.5 12.5 35
   3 19 38  7 1 68  2 37.5 12.5 35
   3 19 38  7 1 69  2 37.5 12.5 35
   3 19 39  7 1 70  2 37.5 12.5 35
   3 19 39  7 1 71  2 37.5 12.5 35
   3 19 39  7 1 72  2 37.5 12.5 35
   3 19 40  7 1 73  2 37.5 12.5 35
   3 19 40  7 1 74  2 37.5 12.5 35
   3 19 40  7 1 75  2 37.5 12.5 35
   3 19 41  7 1 76  2 37.5 12.5 35
   3 19 41  7 1 77  2 37.5 12.5 35
   3 19 41  7 1 78  2 37.5 12.5 35
   4 19 16  8 1 1  2 37.5 12.5 35
   4 19 16  8 1 2  2 37.5 12.5 35
   4 19 16  8 1 3  2 37.5 12.5 35
   4 19 17  8 1 4  2 37.5 12.5 35
   4 19 17  8 1 5  2 37.5 12.5 35
   4 19 17  8 1 6  2 37.5 12.5 35
   4 19 18  8 1 7  2 37.5 12.5 35
   4 19 18  8 1 8  2 37.5 12.5 35
   4 19 18  8 1 9  2 37.5 12.5 35
   4 19 19  8 1 10  2 37.5 12.5 35
   4 19 19  8 1 11  2 37.5 12.5 35
   4 19 19  8 1 12  2 37.5 12.5 35
   4 19 20  8 1 13  2 37.5 12.5 35
   4 19 20  8 1 14  2 37.5 12.5 35
   4 19 20  8 1 15  2 37.5 12.5 35
   4 19 21  8 1 16  2 37.5 12.5 35
   4 19 21  8 1 17  2 37.5 12.5 35
   4 19 21  8 1 18  2 37.5 12.5 35
   4 19 22  8 1 19  2 37.5 12.5 35
   4 19 22  8 1 20  2 37.5 12.5 35
   4 19 22  8 1 21  2 37.5 12.5 35
   4 19 23  8 1 22  2 37.5 12.5 35
   4 19 23  8 1 23  2 37.5 12.5 35
   4 19 23  8 1 24  2 37.5 12.5 35
   4 19 24  8 1 25  2 37.5 12.5 35
   4 19 24  8 1 26  2 37.5 12.5 35
   4 19 24  8 1 27  2 37.5 12.5 35
   4 19 25  8 1 28  2 37.5 12.5 35
   4 19 25  8 1 29  2 37.5 12.5 35
   4 19 25  8 1 30  2 37.5 12.5 35
   4 19 26  8 1 31  2 37.5 12.5 35
   4 19 26  8 1 32  2 37.5 12.5 35
   4 19 26  8 1 33  2 37.5 12.5 35
   4 19 27  8 1 34  2 37.5 12.5 35
   4 19 27  8 1 35  2 37.5 12.5 35
   4 19 27  8 1 36  2 37.5 12.5 35
   4 19 28  8 1 37  2 37.5 12.5 35
   4 19 28  8 1 38  2 37.5 12.5 35
   4 19 28  8 1 39  2 37.5 12.5 35
   4 19 29  8 1 40  2 37.5 12.5 35
   4 19 29  8 1 41  2 37.5 12.5 35
   4 19 29  8 1 42  2 37.5 12.5 35
   4 19 30  8 1 43  2 37.5 12.5 35
   4 19 30  8 1 44  2 37.5 12.5 35
   4 19 30  8 1 45  2 37.5 12.5 35
   4 19 31  8 1 46  2 37.5 12.5 35
   4 19 31  8 1 47  2 37.5 12.5 35
   4 19 31  8 1 48  2 37.5 12.5 35
   4 19 32  8 1 49  2 37.5 12.5 35
   4 19 32  8 1 50  2 37.5 12.5 35
   4 19 32  8 1 51  2 37.5 12.5 35
   4 19 33  8 1 52  2 37.5 12.5 35
   4 19 33  8 1 53  2 37.5 12.5 35
   4 19 33  8 1 54  2 37.5 12.5 35
   4 19 34  8 1 55  2 37.5 12.5 35
   4 19 34  8 1 56  2 37.5 12.5 35
   4 19 34  8 1 57  2 37.5 12.5 35
   4 19 35  8 1 58  2 37.5 12.5 35
   4 19 35  8 1 59  2 37.5 12.5 35
   4 19 35  8 1 60  2 37.5 12.5 35
   4 19 36  8 1 61  2 37.5 12.5 35
   4 19 36  8 1 62  2 37.5 12.5 35
   4 19 36  8 1 63  2 37.5 12.5 35
   4 19 37  8 1 64  2 37.5 12.5 35
   4 19 37  8 1 65  2 37.5 12.5 35
   4 19 37  8 1 66  2 37.5 12.5 35
   4 19 38  8 1 67  2 37.5 12.5 35
   4 19 38  8 1 68  2 37.5 12.5 35
   4 19 38  8 1 69  2 37.5 12.5 35
   4 19 39  8 1 70  2 37.5 12.5 35
   4 19 39  8 1 71  2 37.5 12.5 35
   4 19 39  8 1 72  2 37.5 12.5 35
   4 19 40  8 1 73  2 37.5 12.5 35
   4 19 40  8 1 74  2 37.5 12.5 35
   4 19 40  8 1 75  2 37.5 12.5 35
   4 19 41  8 1 76  2 37.5 12.5 35
   4 19 41  8 1 77  2 37.5 12.5 35
   4 19 41  8 1 78  2 37.5 12.5 35
   4 19 16  9 1 1  2 37.5 12.5 35
   4 19 16  9 1 2  2 37.5 12.5 35
   4 19 16  9 1 3  2 37.5 12.5 35
   4 19 17  9 1 4  2 37.5 12.5 35
   4 19 17  9 1 5  2 37.5 12.5 35
   4 19 17  9 1 6  2 37.5 12.5 35
   4 19 18  9 1 7  2 37.5 12.5 35
   4 19 18  9 1 8  2 37.5 12.5 35
   4 19 18  9 1 9  2 37.5 12.5 35
   4 19 19  9 1 10  2 37.5 12.5 35
   4 19 19  9 1 11  2 37.5 12.5 35
   4 19 19  9 1 12  2 37.5 12.5 35
   4 19 20  9 1 13  2 37.5 12.5 35
   4 19 20  9 1 14  2 37.5 12.5 35
   4 19 20  9 1 15  2 37.5 12.5 35
   4 19 21  9 1 16  2 37.5 12.5 35
   4 19 21  9 1 17  2 37.5 12.5 35
   4 19 21  9 1 18  2 37.5 12.5 35
   4 19 22  9 1 19  2 37.5 12.5 35
   4 19 22  9 1 20  2 37.5 12.5 35
   4 19 22  9 1 21  2 37.5 12.5 35
   4 19 23  9 1 22  2 37.5 12.5 35
   4 19 23  9 1 23  2 37.5 12.5 35
   4 19 23  9 1 24  2 37.5 12.5 35
   4 19 24  9 1 25  2 37.5 12.5 35
   4 19 24  9 1 26  2 37.5 12.5 35
   4 19 24  9 1 27  2 37.5 12.5 35
   4 19 25  9 1 28  2 37.5 12.5 35
   4 19 25  9 1 29  2 37.5 12.5 35
   4 19 25  9 1 30  2 37.5 12.5 35
   4 19 26  9 1 31  2 37.5 12.5 35
   4 19 26  9 1 32  2 37.5 12.5 35
   4 19 26  9 1 33  2 37.5 12.5 35
   4 19 27  9 1 34  2 37.5 12.5 35
   4 19 27  9 1 35  2 37.5 12.5 35
   4 19 27  9 1 36  2 37.5 12.5 35
   4 19 28  9 1 37  2 37.5 12.5 35
   4 19 28  9 1 38  2 37.5 12.5 35
   4 19 28  9 1 39  2 37.5 12.5 35
   4 19 29  9 1 40  2 37.5 12.5 35
   4 19 29  9 1 41  2 37.5 12.5 35
   4 19 29  9 1 42  2 37.5 12.5 35
   4 19 30  9 1 43  2 37.5 12.5 35
   4 19 30  9 1 44  2 37.5 12.5 35
   4 19 30  9 1 45  2 37.5 12.5 35
   4 19 31  9 1 46  2 37.5 12.5 35
   4 19 31  9 1 47  2 37.5 12.5 35
   4 19 31  9 1 48  2 37.5 12.5 35
   4 19 32  9 1 49  2 37.5 12.5 35
   4 19 32  9 1 50  2 37.5 12.5 35
   4 19 32  9 1 51  2 37.5 12.5 35
   4 19 33  9 1 52  2 37.5 12.5 35
   4 19 33  9 1 53  2 37.5 12.5 35
   4 19 33  9 1 54  2 37.5 12.5 35
   4 19 34  9 1 55  2 37.5 12.5 35
   4 19 34  9 1 56  2 37.5 12.5 35
   4 19 34  9 1 57  2 37.5 12.5 35
   4 19 35  9 1 58  2 37.5 12.5 35
   4 19 35  9 1 59  2 37.5 12.5 35
   4 19 35  9 1 60  2 37.5 12.5 35
   4 19 36  9 1 61  2 37.5 12.5 35
   4 19 36  9 1 62  2 37.5 12.5 35
   4 19 36  9 1 63  2 37.5 12.5 35
   4 19 37  9 1 64  2 37.5 12.5 35
   4 19 37  9 1 65  2 37.5 12.5 35
   4 19 37  9 1 66  2 37.5 12.5 35
   4 19 38  9 1 67  2 37.5 12.5 35
   4 19 38  9 1 68  2 37.5 12.5 35
   4 19 38  9 1 69  2 37.5 12.5 35
   4 19 39  9 1 70  2 37.5 12.5 35
   4 19 39  9 1 71  2 37.5 12.5 35
   4 19 39  9 1 72  2 37.5 12.5 35
   4 19 40  9 1 73  2 37.5 12.5 35
   4 19 40  9 1 74  2 37.5 12.5 35
   4 19 40  9 1 75  2 37.5 12.5 35
   4 19 41  9 1 76  2 37.5 12.5 35
   4 19 41  9 1 77  2 37.5 12.5 35
   4 19 41  9 1 78  2 37.5 12.5 35
   4 19 16  10 1 1  2 37.5 12.5 35
   4 19 16  10 1 2  2 37.5 12.5 35
   4 19 16  10 1 3  2 37.5 12.5 35
   4 19 17  10 1 4  2 37.5 12.5 35
   4 19 17  10 1 5  2 37.5 12.5 35
   4 19 17  10 1 6  2 37.5 12.5 35
   4 19 18  10 1 7  2 37.5 12.5 35
   4 19 18  10 1 8  2 37.5 12.5 35
   4 19 18  10 1 9  2 37.5 12.5 35
   4 19 19  10 1 10  2 37.5 12.5 35
   4 19 19  10 1 11  2 37.5 12.5 35
   4 19 19  10 1 12  2 37.5 12.5 35
   4 19 20  10 1 13  2 37.5 12.5 35
   4 19 20  10 1 14  2 37.5 12.5 35
   4 19 20  10 1 15  2 37.5 12.5 35
   4 19 21  10 1 16  2 37.5 12.5 35
   4 19 21  10 1 17  2 37.5 12.5 35
   4 19 21  10 1 18  2 37.5 12.5 35
   4 19 22  10 1 19  2 37.5 12.5 35
   4 19 22  10 1 20  2 37.5 12.5 35
   4 19 22  10 1 21  2 37.5 12.5 35
   4 19 23  10 1 22  2 37.5 12.5 35
   4 19 23  10 1 23  2 37.5 12.5 35
   4 19 23  10 1 24  2 37.5 12.5 35
   4 19 24  10 1 25  2 37.5 12.5 35
   4 19 24  10 1 26  2 37.5 12.5 35
   4 19 24  10 1 27  2 37.5 12.5 35
   4 19 25  10 1 28  2 37.5 12.5 35
   4 19 25  10 1 29  2 37.5 12.5 35
   4 19 25  10 1 30  2 37.5 12.5 35
   4 19 26  10 1 31  2 37.5 12.5 35
   4 19 26  10 1 32  2 37.5 12.5 35
   4 19 26  10 1 33  2 37.5 12.5 35
   4 19 27  10 1 34  2 37.5 12.5 35
   4 19 27  10 1 35  2 37.5 12.5 35
   4 19 27  10 1 36  2 37.5 12.5 35
   4 19 28  10 1 37  2 37.5 12.5 35
   4 19 28  10 1 38  2 37.5 12.5 35
   4 19 28  10 1 39  2 37.5 12.5 35
   4 19 29  10 1 40  2 37.5 12.5 35
   4 19 29  10 1 41  2 37.5 12.5 35
   4 19 29  10 1 42  2 37.5 12.5 35
   4 19 30  10 1 43  2 37.5 12.5 35
   4 19 30  10 1 44  2 37.5 12.5 35
   4 19 30  10 1 45  2 37.5 12.5 35
   4 19 31  10 1 46  2 37.5 12.5 35
   4 19 31  10 1 47  2 37.5 12.5 35
   4 19 31  10 1 48  2 37.5 12.5 35
   4 19 32  10 1 49  2 37.5 12.5 35
   4 19 32  10 1 50  2 37.5 12.5 35
   4 19 32  10 1 51  2 37.5 12.5 35
   4 19 33  10 1 52  2 37.5 12.5 35
   4 19 33  10 1 53  2 37.5 12.5 35
   4 19 33  10 1 54  2 37.5 12.5 35
   4 19 34  10 1 55  2 37.5 12.5 35
   4 19 34  10 1 56  2 37.5 12.5 35
   4 19 34  10 1 57  2 37.5 12.5 35
   4 19 35  10 1 58  2 37.5 12.5 35
   4 19 35  10 1 59  2 37.5 12.5 35
   4 19 35  10 1 60  2 37.5 12.5 35
   4 19 36  10 1 61  2 37.5 12.5 35
   4 19 36  10 1 62  2 37.5 12.5 35
   4 19 36  10 1 63  2 37.5 12.5 35
   4 19 37  10 1 64  2 37.5 12.5 35
   4 19 37  10 1 65  2 37.5 12.5 35
   4 19 37  10 1 66  2 37.5 12.5 35
   4 19 38  10 1 67  2 37.5 12.5 35
   4 19 38  10 1 68  2 37.5 12.5 35
   4 19 38  10 1 69  2 37.5 12.5 35
   4 19 39  10 1 70  2 37.5 12.5 35
   4 19 39  10 1 71  2 37.5 12.5 35
   4 19 39  10 1 72  2 37.5 12.5 35
   4 19 40  10 1 73  2 37.5 12.5 35
   4 19 40  10 1 74  2 37.5 12.5 35
   4 19 40  10 1 75  2 37.5 12.5 35
   4 19 41  10 1 76  2 37.5 12.5 35
   4 19 41  10 1 77  2 37.5 12.5 35
   4 19 41  10 1 78  2 37.5 12.5 35
   5 19 16  11 1 1  2 37.5 12.5 35
   5 19 16  11 1 2  2 37.5 12.5 35
   5 19 16  11 1 3  2 37.5 12.5 35
   5 19 17  11 1 4  2 37.5 12.5 35
   5 19 17  11 1 5  2 37.5 12.5 35
   5 19 17  11 1 6  2 37.5 12.5 35
   5 19 18  11 1 7  2 37.5 12.5 35
   5 19 18  11 1 8  2 37.5 12.5 35
   5 19 18  11 1 9  2 37.5 12.5 35
   5 19 19  11 1 10  2 37.5 12.5 35
   5 19 19  11 1 11  2 37.5 12.5 35
   5 19 19  11 1 12  2 37.5 12.5 35
   5 19 20  11 1 13  2 37.5 12.5 35
   5 19 20  11 1 14  2 37.5 12.5 35
   5 19 20  11 1 15  2 37.5 12.5 35
   5 19 21  11 1 16  2 37.5 12.5 35
   5 19 21  11 1 17  2 37.5 12.5 35
   5 19 21  11 1 18  2 37.5 12.5 35
   5 19 22  11 1 19  2 37.5 12.5 35
   5 19 22  11 1 20  2 37.5 12.5 35
   5 19 22  11 1 21  2 37.5 12.5 35
   5 19 23  11 1 22  2 37.5 12.5 35
   5 19 23  11 1 23  2 37.5 12.5 35
   5 19 23  11 1 24  2 37.5 12.5 35
   5 19 24  11 1 25  2 37.5 12.5 35
   5 19 24  11 1 26  2 37.5 12.5 35
   5 19 24  11 1 27  2 37.5 12.5 35
   5 19 25  11 1 28  2 37.5 12.5 35
   5 19 25  11 1 29  2 37.5 12.5 35
   5 19 25  11 1 30  2 37.5 12.5 35
   5 19 26  11 1 31  2 37.5 12.5 35
   5 19 26  11 1 32  2 37.5 12.5 35
   5 19 26  11 1 33  2 37.5 12.5 35
   5 19 27  11 1 34  2 37.5 12.5 35
   5 19 27  11 1 35  2 37.5 12.5 35
   5 19 27  11 1 36  2 37.5 12.5 35
   5 19 28  11 1 37  2 37.5 12.5 35
   5 19 28  11 1 38  2 37.5 12.5 35
   5 19 28  11 1 39  2 37.5 12.5 35
   5 19 29  11 1 40  2 37.5 12.5 35
   5 19 29  11 1 41  2 37.5 12.5 35
   5 19 29  11 1 42  2 37.5 12.5 35
   5 19 30  11 1 43  2 37.5 12.5 35
   5 19 30  11 1 44  2 37.5 12.5 35
   5 19 30  11 1 45  2 37.5 12.5 35
   5 19 31  11 1 46  2 37.5 12.5 35
   5 19 31  11 1 47  2 37.5 12.5 35
   5 19 31  11 1 48  2 37.5 12.5 35
   5 19 32  11 1 49  2 37.5 12.5 35
   5 19 32  11 1 50  2 37.5 12.5 35
   5 19 32  11 1 51  2 37.5 12.5 35
   5 19 33  11 1 52  2 37.5 12.5 35