BEGIN OPTIONS
  PRINT_INPUT
  PRINT_FLOWS
  SAVE_FLOWS
END OPTIONS

BEGIN DIMENSIONS
  MAXBOUND 73
END DIMENSIONS

BEGIN PERIOD 1
         1        45         2 51.977000 0.0183700   51.4770         0
         1        45         3 51.970000 0.0183700   51.4700         0
         1        46         3 51.798200 0.0918500   51.2982         0
         1        46         4 51.626000 0.0183700   51.1260         0
         1        47         4 51.454200 0.0918500   50.9542         0
         1        47         5 51.282000 0.0183700   50.7820         0
         1        48         5 51.139000 0.0734800   50.6390         0
         1        48         6 50.879750 0.0734800   50.3798         0
         1        48         7 50.569000 0.0551100   50.0690         0
         1        48         8 50.287667 0.0551100   49.7877         0
         1        48         9 50.097000 0.0183700   49.5970         0
         1        47         9 49.954250 0.0734800   49.4543         0
         1        47        10 49.700500 0.0734800   49.2005         0
         1        46        11 49.387250 0.0734800   48.8873         0
         1        46        12 49.117000 0.0734800   48.6170         0
         1        45        12 48.958000 0.0183700   48.4580         0
         1        45        13 48.761800 0.0918500   48.2618         0
         1        45        14 48.574000 0.0183700   48.0740         0
         1        44        14 48.432750 0.0734800   47.9327         0
         1        44        15 48.216667 0.0551100   47.7167         0
         1        43        15 48.072000 0.0367400   47.5720         0
#         1        43        16 47.857600 0.0459250   47.3576         0
#         1        42        16 47.679000 0.0091850   47.1790         0
#         1        42        17 47.501000 0.0918500   47.0010         0
#         1        42        18 47.325000 0.0183700   46.8250         0
#         1        41        18 47.153400 0.0918500   46.6534         0
#         1        41        19 46.980000 0.0183700   46.4800         0
#         1        40        19 46.808600 0.0918500   46.3086         0
#         1        40        20 46.636000 0.0183700   46.1360         0
#         1        39        20 46.463800 0.0918500   45.9638         0
#         1        39        21 46.291000 0.0183700   45.7910         0
#         1        38        21 46.118800 0.0918500   45.6188         0
#         1        38        22 45.946000 0.0183700   45.4460         0
#         1        37        22 45.775600 0.0918500   45.2756         0
#         1        36        23 45.442800 0.0918500   44.9428         0
#         1        35        23 45.271000 0.0183700   44.7710         0
#         1        35        24 45.102200 0.0918500   44.6022         0
#         1        35        25 44.745000 0.0918500   44.2450         0
#         1        35        26 44.418000 0.0734800   43.9180         0
#         1        35        27 44.157000 0.0734800   43.6570         0
#         1        36        27 44.003000 0.0183700   43.5030         0
#         1        36        28 43.840333 0.0551100   43.3403         0
#         1        36        29 43.553000 0.0551100   43.0530         0
#         1        36        30 43.269333 0.0551100   42.7693         0
#         1        35        30 43.126000 0.0183700   42.6260         0
#         1        35        31 42.955200 0.0918500   42.4552         0
#         1        35        32 42.633667 0.0551100   42.1336         0
#         1        35        33 42.363333 0.0551100   41.8633         0
#         1        34        33 42.243000 0.0183700   41.7430         0
#         1        34        34 42.073333 0.0551100   41.5733         0
#         1        34        35 41.775750 0.0734800   41.2757         0
#         1        34        36 41.522500 0.0734800   41.0225         0
#         1        33        36 41.385000 0.0183700   40.8850         0
#         1        33        37 41.195250 0.0734800   40.6953         0
#         1        33        38 40.925750 0.0734800   40.4257         0
#         1        32        39 40.584000 0.0734800   40.0840         0
#         1        32        40 40.301750 0.0734800   39.8017         0
#         1        32        41 40.108000 0.0091850   39.6080         0
#         1        31        41 39.972000 0.0367400   39.4720         0
#         1        32        38 40.764000 0.0183700   40.2640         0
#         1        36        22 45.610000 0.0183700   45.1100         0
         1        31        42 39.705750 0.0734800   39.2058         0
         1        31        43 39.527000 0.0183700   39.0270         0
         1        30        43 39.394333 0.0551100   38.8943         0
         1        30        44 39.112000 0.0551100   38.6120         0
         1        30        45 38.826400 0.0918500   38.3264         0
         1        30        46 38.516000 0.0551100   38.0160         0
         1        30        47 38.288500 0.0367400   37.7885         0
         1        29        47 38.166500 0.0367400   37.6665         0
         1        29        48 37.942400 0.0918500   37.4424         0
         1        29        49 37.665333 0.0551100   37.1665         0
         1        30        49 37.552000 0.0183700   37.0520         0
         1        46        10 49.550000 0.0183700   49.0500         0
END PERIOD