# Simulation name file for MODFLOW 6 prepared by MF5to6

BEGIN Options
END Options

BEGIN Timing
  TDIS6  rivmvr.tdis
END Timing

BEGIN Models
  GWF6  rivmvr.nam  rivmvr
END Models

BEGIN Exchanges
END Exchanges

BEGIN SOLUTIONGROUP 1
  MXITER  1
  IMS6  rivmvr.ims  rivmvr
END SOLUTIONGROUP
