# sms8 input file, prepared by mf5to6 on 1/11/2017 at 17:13:57.

begin options
  print_option  summary
  complexity  simple
end options

begin nonlinear
  outer_dvclose   0.1000000e-07
  outer_maximum  5000
  under_relaxation  none
  under_relaxation_theta    0.000000    
  under_relaxation_kappa    0.000000    
  under_relaxation_gamma    0.000000    
  under_relaxation_momentum    0.000000    
end nonlinear

begin linear
  inner_maximum  100
  inner_dvclose   0.1000000e-08
  inner_rclose   0.1000000    
  linear_acceleration  cg
  number_orthogonalizations  2
  reordering_method  none
end linear
