BEGIN Options
  LIST       rivmvr.lst
END Options

BEGIN Packages
  DIS6       rivmvr.dis
  IC6        rivmvr.ic
  NPF6       rivmvr.npf
  OC6        rivmvr.oc
  RIV6       rivmvr.riv
  CHD6       rivmvr.ibound.chd  'CHD-FROM-IBOUND' 
  MAW6       rivmvr.maw
  MVR6       rivmvr.mvr
END Packages

