BEGIN OPTIONS
  PRINT_INPUT
  PRINT_FLOWS
  MOVER
  BOUNDNAMES
  OBS6 FILEIN  riv.obs
END OPTIONS

BEGIN DIMENSIONS
  MAXBOUND 4
END DIMENSIONS

BEGIN PERIOD 1
# cellid stage cond   rbot
  1 5 13 -10.0 100.0 -15.0 riv2
  1 5 14 -10.0 100.0 -15.0 riv2
  1 5 15 -10.0 100.0 -15.0 riv1
  1 5 16 -10.0 100.0 -15.0 riv1
END PERIOD