# DIS8 input file, prepared by MF5to6 on 1/11/2017 at 17:13:57.

BEGIN Options
  LENGTH_UNITS  FEET
END Options

BEGIN Dimensions
  NLAY  1
  NROW  20
  NCOL  20
END Dimensions

BEGIN GRIDDATA
  DELR
    CONSTANT    1000.00000        DELR
  DELC
    CONSTANT    1000.00000        DELC
  TOP LAYERED
    CONSTANT    50.00000    
  BOTM LAYERED
    CONSTANT   -200.0000    
END GRIDDATA
