BEGIN OPTIONS
  PRINT_INPUT
  PRINT_FLOWS
  MOVER
END OPTIONS

BEGIN DIMENSIONS
  MAXBOUND 1
END DIMENSIONS

BEGIN PERIOD 1
# cellid elev  cond
  1 6 16 -10.0 100.0
END PERIOD
