BEGIN OPTIONS
  TIME_UNITS DAYS
END OPTIONS

BEGIN DIMENSIONS
  NPER 10
END DIMENSIONS

BEGIN PERIODDATA
 #perlen nstp  tsmult
     10.   10      1.
     10.   10      1.
     10.   10      1.
     10.   10      1.
     10.   10      1.
     10.   10      1.
     10.   10      1.
     10.   10      1.
     10.   10      1.
     10.   10      1.
END PERIODDATA
