BEGIN OPTIONS
  #NONE
  LENGTH_UNITS METERS
END OPTIONS

BEGIN DIMENSIONS
  NLAY 1
  NROW 1
  NCOL 100
END DIMENSIONS

BEGIN GRIDDATA
  delr
    CONSTANT     1.  DELR
  delc
    CONSTANT     1.  DELC
  top LAYERED
    CONSTANT    10.  MODEL TOP
  botm LAYERED
    CONSTANT     0.  MODEL BOTTOM LAYER 1
  idomain LAYERED
    CONSTANT      1 
     
END GRIDDATA




