
begin options
  PRINT_INPUT
  PRINT_FLOWS
  AUTO_FLOW_REDUCE 0.10
  BOUNDNAMES
  SAVE_FLOWS  Well_Reduction.cbb
  OBS6 FILEIN        Well_Reduction.wel.obs
end options

begin dimensions
  MAXBOUND 1
end dimensions

#        k         i         j      flux    name 
begin period 1
         1         1         1      -10.   well1
end period
