begin options
  digits 10
end options

#
# Blocks defining continuous observations
#
BEGIN CONTINUOUS FILEOUT well_heads.csv
# obsname        type  lay  row  col (or boundname)
  head           HEAD    1    1    1
END CONTINUOUS
