BEGIN OPTIONS
  HEAD FILEOUT Well_Reduction.hds
  BUDGET FILEOUT Well_Reduction.cbc
END OPTIONS

BEGIN PERIOD 1
  PRINT BUDGET FREQUENCY 1
  SAVE BUDGET FREQUENCY 1
  SAVE HEAD FREQUENCY 1
END PERIOD
