BEGIN OPTIONS
END OPTIONS

BEGIN CONTINUOUS FILEOUT  test001e_UZF_TS.csv
H1          head  1 1 3
H2          head  2 1 3
H3          head  3 1 3
END CONTINUOUS