BEGIN OPTIONS
  PRINT_INPUT
  PRINT_FLOWS
END OPTIONS

BEGIN DIMENSIONS
  MAXMVR 10
  MAXPACKAGES 1
END DIMENSIONS

BEGIN PACKAGES
  SFR-1
END PACKAGES

BEGIN PERIOD 1
  SFR-1 2 SFR-1 3 FACTOR 1.0
END PERIOD 1
