begin options
  PRINT_INPUT
  PRINT_FLOWS
  BOUNDNAMES
end options

begin dimensions
  MAXBOUND 10
end dimensions

begin period 1
  open/close test1tr.wel.per1.ref
end period

begin period 2
end period 2
