# sms8 input file, prepared by mf5to15 on 6/29/2015 at 9:31:12.

begin options
  print_option summary
  complexity  simple
end options

begin nonlinear
  outer_dvclose   0.10000000e-02
  outer_maximum  120
  under_relaxation  none
end nonlinear

begin linear
  inner_maximum  100
  inner_dvclose   0.10000000e-03
  inner_rclose   0.10000000    
  linear_acceleration  cg
end linear

begin xmd
  inner_maximum  100
  inner_dvclose   0.10000000e-03
  linear_acceleration  cg
  preconditioner_levels  7
  preconditioner_drop_tolerance   0.10000000e-02
  number_orthogonalizations  2
end xmd
