# STO8 input file, prepared by mf5to15 on 6/29/2015 at 9:31:12.

BEGIN Options
  STORAGECOEFFICIENT
END Options

BEGIN GRIDDATA
  ICONVERT LAYERED
    CONSTANT  0
  SS LAYERED
    CONSTANT   0.10000000E-01
  SY LAYERED
    CONSTANT    0.0000000    
END GRIDDATA
