# SMS8 input file, prepared by mf5to15 on 6/29/2015 at 9:31:12.

BEGIN Options
  PRINT_OPTION SUMMARY
  COMPLEXITY  SIMPLE
END Options

BEGIN Nonlinear
  OUTER_HCLOSE   0.10000000E-02
  OUTER_MAXIMUM  120
  UNDER_RELAXATION  NONE
END Nonlinear

BEGIN LINEAR
  INNER_MAXIMUM  100
  INNER_HCLOSE   0.10000000E-03
  INNER_RCLOSE   0.10000000    
  LINEAR_ACCELERATION  CG
END LINEAR

BEGIN XMD
  INNER_MAXIMUM  100
  INNER_HCLOSE   0.10000000E-03
  LINEAR_ACCELERATION  CG
  PRECONDITIONER_LEVELS  7
  PRECONDITIONER_DROP_TOLERANCE   0.10000000E-02
  NUMBER_ORTHOGONALIZATIONS  2
END XMD
