BEGIN OPTIONS
  PRINT_INPUT
  PRINT_FLOWS
  SAVE_FLOWS
  TS6 FILEIN fhb_head.ts
END OPTIONS

BEGIN DIMENSIONS
  MAXBOUND 3
END DIMENSIONS

BEGIN PERIOD 1
  1 1 10 head
  1 2 10 head
  1 3 10 head
END PERIOD
