BEGIN Options
END Options

BEGIN PACKAGES
  DIS6          fhb2015.dis
  IC6           fhb2015.ic
  NPF6          fhb2015.npf
  STO6          fhb2015.sto
  CHD6          fhb2015.chd
  WEL6          fhb2015.wel
  OC6           fhb2015.oc
END PACKAGES

