# IC8 input file, prepared by mf5to15 on 6/29/2015 at 9:31:12.

BEGIN Options
END Options

BEGIN GRIDDATA
  STRT LAYERED
    CONSTANT    0.00000000        Initial head for layer 1
END GRIDDATA
