# OC8 input file, prepared by mf5to15 on 6/29/2015 at 9:31:12.

BEGIN Options
  HEAD FILEOUT  fhb2015_fhb.hds
  HEAD PRINT_FORMAT  COLUMNS 20  WIDTH 5  DIGITS 2  FIXED
END Options

BEGIN PERIOD 1
  PRINT BUDGET ALL
  SAVE HEAD ALL
  PRINT HEAD ALL
END PERIOD

BEGIN PERIOD 3
  PRINT BUDGET LAST
  PRINT HEAD LAST
  SAVE HEAD ALL
END PERIOD
