BEGIN OPTIONS
  PRINT_INPUT
  PRINT_FLOWS
  SAVE_FLOWS
  TS6 FILEIN fhb_flow.ts
END OPTIONS

BEGIN DIMENSIONS
  MAXBOUND 1
END DIMENSIONS

BEGIN PERIOD 1
  1 2 1 flow
END PERIOD
