# Simulation name file for MODFLOW-2015 prepared by Mf5to15

BEGIN Options
END Options

BEGIN Timing
  TDIS6  fhb2015.tdis
END Timing

BEGIN Models
  GWF6  fhb2015.nam  fhb2015
END Models

BEGIN Exchanges
END Exchanges

BEGIN SOLUTIONGROUP 1
  MXITER  1
  IMS6  fhb2015.ims  fhb2015
END SOLUTIONGROUP
