BEGIN OPTIONS

END OPTIONS

BEGIN DIMENSIONS
  NLAY 2
  NROW 10
  NCOL 15
END DIMENSIONS

BEGIN GRIDDATA
  delr
    CONSTANT   5.000000E+02  DELR
  delc
    CONSTANT   5.000000E+02  DELC
  top
    CONSTANT   1.500000E+02  TOP of system          
  botm LAYERED
   CONSTANT   5.000000E+01  Layer BOTM layer   1
   CONSTANT  -5.000000E+01  Layer BOTM layer   2
END GRIDDATA


    2   10   15  0  NLAY,NROW,NCOL,LENUNI
CONSTANT   5.000000E+02  DELR
CONSTANT   5.000000E+02  DELC
CONSTANT   1.500000E+02  TOP of system          
CONSTANT   5.000000E+01  Layer BOTM layer   1
CONSTANT  -5.000000E+01  Layer BOTM layer   2




