BEGIN OPTIONS
  HEAD FILEOUT bcf2ss.hds
  BUDGET FILEOUT bcf2ss.cbb
  HEAD PRINT_FORMAT  COLUMNS 15  WIDTH 12  DIGITS 2  GENERAL
END OPTIONS

BEGIN PERIOD 1
  PRINT BUDGET ALL
  SAVE BUDGET ALL
  PRINT HEAD ALL
  SAVE HEAD ALL
END PERIOD
