begin options
  SAVE_FLOWS
  REWET WETFCT 1. IWETIT 1 IHDWET 0
end options
#
BEGIN GRIDDATA
  icelltype LAYERED
    constant 1
	constant 0
  wetdry LAYERED
    INTERNAL  IPRN 1
 2.000000E+00  2.000000E+00  2.000000E+00  2.000000E+00  2.000000E+00 2.000000E+00 2.000000E+00 2.000000E+00 -2.000000E+00 -2.000000E+00
-2.000000E+00 -2.000000E+00 -2.000000E+00 -2.000000E+00 -2.000000E+00
 2.000000E+00  2.000000E+00  2.000000E+00  2.000000E+00  2.000000E+00 2.000000E+00 2.000000E+00 2.000000E+00 -2.000000E+00 -2.000000E+00
-2.000000E+00 -2.000000E+00 -2.000000E+00 -2.000000E+00 -2.000000E+00
 2.000000E+00  2.000000E+00  2.000000E+00 -2.000000E+00  2.000000E+00 2.000000E+00 2.000000E+00 2.000000E+00 -2.000000E+00 -2.000000E+00
-2.000000E+00 -2.000000E+00 -2.000000E+00 -2.000000E+00 -2.000000E+00
 2.000000E+00  2.000000E+00  2.000000E+00  2.000000E+00  2.000000E+00 2.000000E+00 2.000000E+00 2.000000E+00 -2.000000E+00 -2.000000E+00
-2.000000E+00 -2.000000E+00 -2.000000E+00 -2.000000E+00 -2.000000E+00
 2.000000E+00  2.000000E+00  2.000000E+00  2.000000E+00  2.000000E+00 2.000000E+00 2.000000E+00 2.000000E+00 -2.000000E+00 -2.000000E+00
-2.000000E+00 -2.000000E+00 -2.000000E+00 -2.000000E+00 -2.000000E+00
 2.000000E+00  2.000000E+00  2.000000E+00  2.000000E+00  2.000000E+00 2.000000E+00 2.000000E+00 2.000000E+00 -2.000000E+00 -2.000000E+00
-2.000000E+00 -2.000000E+00 -2.000000E+00 -2.000000E+00 -2.000000E+00
 2.000000E+00  2.000000E+00  2.000000E+00  2.000000E+00  2.000000E+00 2.000000E+00 2.000000E+00 2.000000E+00 -2.000000E+00 -2.000000E+00
-2.000000E+00 -2.000000E+00 -2.000000E+00 -2.000000E+00 -2.000000E+00
 2.000000E+00  2.000000E+00  2.000000E+00 -2.000000E+00  2.000000E+00 2.000000E+00 2.000000E+00 2.000000E+00 -2.000000E+00 -2.000000E+00
-2.000000E+00 -2.000000E+00 -2.000000E+00 -2.000000E+00 -2.000000E+00
 2.000000E+00  2.000000E+00  2.000000E+00  2.000000E+00  2.000000E+00 2.000000E+00 2.000000E+00 2.000000E+00 -2.000000E+00 -2.000000E+00
-2.000000E+00 -2.000000E+00 -2.000000E+00 -2.000000E+00 -2.000000E+00
 2.000000E+00  2.000000E+00  2.000000E+00  2.000000E+00  2.000000E+00 2.000000E+00 2.000000E+00 2.000000E+00 -2.000000E+00 -2.000000E+00
-2.000000E+00 -2.000000E+00 -2.000000E+00 -2.000000E+00 -2.000000E+00
	constant 0.
  k LAYERED
    constant 10.
	INTERNAL  FACTOR  1. IPRN 1
	5. 5. 5. 5. 5. 5. 5. 5. 5. 5. 5. 5. 5. 5. 5. 
	5. 5. 5. 5. 5. 5. 5. 5. 5. 5. 5. 5. 5. 5. 5. 
	5. 5. 5. 5. 5. 5. 5. 5. 5. 5. 5. 5. 5. 5. 5. 
	5. 5. 5. 5. 5. 5. 5. 5. 5. 5. 5. 5. 5. 5. 5. 
	5. 5. 5. 5. 5. 5. 5. 5. 5. 5. 5. 5. 5. 5. 5. 
	5. 5. 5. 5. 5. 5. 5. 5. 5. 5. 5. 5. 5. 5. 5. 
	5. 5. 5. 5. 5. 5. 5. 5. 5. 5. 5. 5. 5. 5. 5. 
	5. 5. 5. 5. 5. 5. 5. 5. 5. 5. 5. 5. 5. 5. 5. 
	5. 5. 5. 5. 5. 5. 5. 5. 5. 5. 5. 5. 5. 5. 5. 
	5. 5. 5. 5. 5. 5. 5. 5. 5. 5. 5. 5. 5. 5. 5. 
  K33
    constant 0.1
END GRIDDATA



 30 777.77 1 1.00E+00 1 0 0  IBCFCB,HDRY,IWDFLG,WETFCT,IWETIT,IHDWET,IKVFLAG
 1 0
CONSTANT   1.000000E+00  TRPY
CONSTANT   1.000000E+01  HY layer   1
CONSTANT   1.000000E-03  VCONT layer   1
INTERNAL  FACTOR   1.000000E+00 IPRN    7  WETDRY layer   1
 2.000000E+00 2.000000E+00 2.000000E+00 2.000000E+00 2.000000E+00 2.000000E+00 2.000000E+00 2.000000E+00-2.000000E+00-2.000000E+00
-2.000000E+00-2.000000E+00-2.000000E+00-2.000000E+00-2.000000E+00
 2.000000E+00 2.000000E+00 2.000000E+00 2.000000E+00 2.000000E+00 2.000000E+00 2.000000E+00 2.000000E+00-2.000000E+00-2.000000E+00
-2.000000E+00-2.000000E+00-2.000000E+00-2.000000E+00-2.000000E+00
 2.000000E+00 2.000000E+00 2.000000E+00-2.000000E+00 2.000000E+00 2.000000E+00 2.000000E+00 2.000000E+00-2.000000E+00-2.000000E+00
-2.000000E+00-2.000000E+00-2.000000E+00-2.000000E+00-2.000000E+00
 2.000000E+00 2.000000E+00 2.000000E+00 2.000000E+00 2.000000E+00 2.000000E+00 2.000000E+00 2.000000E+00-2.000000E+00-2.000000E+00
-2.000000E+00-2.000000E+00-2.000000E+00-2.000000E+00-2.000000E+00
 2.000000E+00 2.000000E+00 2.000000E+00 2.000000E+00 2.000000E+00 2.000000E+00 2.000000E+00 2.000000E+00-2.000000E+00-2.000000E+00
-2.000000E+00-2.000000E+00-2.000000E+00-2.000000E+00-2.000000E+00
 2.000000E+00 2.000000E+00 2.000000E+00 2.000000E+00 2.000000E+00 2.000000E+00 2.000000E+00 2.000000E+00-2.000000E+00-2.000000E+00
-2.000000E+00-2.000000E+00-2.000000E+00-2.000000E+00-2.000000E+00
 2.000000E+00 2.000000E+00 2.000000E+00 2.000000E+00 2.000000E+00 2.000000E+00 2.000000E+00 2.000000E+00-2.000000E+00-2.000000E+00
-2.000000E+00-2.000000E+00-2.000000E+00-2.000000E+00-2.000000E+00
 2.000000E+00 2.000000E+00 2.000000E+00-2.000000E+00 2.000000E+00 2.000000E+00 2.000000E+00 2.000000E+00-2.000000E+00-2.000000E+00
-2.000000E+00-2.000000E+00-2.000000E+00-2.000000E+00-2.000000E+00
 2.000000E+00 2.000000E+00 2.000000E+00 2.000000E+00 2.000000E+00 2.000000E+00 2.000000E+00 2.000000E+00-2.000000E+00-2.000000E+00
-2.000000E+00-2.000000E+00-2.000000E+00-2.000000E+00-2.000000E+00
 2.000000E+00 2.000000E+00 2.000000E+00 2.000000E+00 2.000000E+00 2.000000E+00 2.000000E+00 2.000000E+00-2.000000E+00-2.000000E+00
-2.000000E+00-2.000000E+00-2.000000E+00-2.000000E+00-2.000000E+00
CONSTANT   5.000000E+02  TRAN layer   2
