begin options
  print_option all
  csv_outer_output fileout bcf2ss.outer.ims.csv
  csv_inner_output fileout bcf2ss.inner.ims.csv
	complexity simple
end options

begin nonlinear
	outer_dvclose 1.e-6
	outer_maximum 500
	under_relaxation none
end nonlinear

begin linear
	inner_dvclose 1.0e-6
	inner_rclose 0.001
	#l2norm_rclose
	inner_maximum 100
	linear_acceleration cg
	scaling_method none
	reordering_method none
	relaxation_factor 0.97
end linear
