BEGIN OPTIONS
  TIME_UNITS DAYS
END OPTIONS

BEGIN DIMENSIONS
  NPER 2
END DIMENSIONS

BEGIN PERIODDATA
 #perlen nstp  tsmult
    1.0    1    1.0
    1.0    1    1.0
END PERIODDATA
