# square lake                                         
begin dimensions                                      
  nrow  41
  ncol   4                                         
end dimensions                                        
                                                      
begin table                                           
#     stage       volume       sarea       warea                          
  40.000000     0.000000    0.000000    0.000000
  40.250000     9.801115   78.343467   78.539816
  40.500000    39.139008  156.294235  157.079633
  40.750000    87.915507  233.852303  235.619449
  41.000000   156.032435  311.017673  314.159265
  41.250000   243.391618  387.790343  392.699082
  41.500000   349.894882  464.170315  471.238898
  41.750000   475.444051  540.157587  549.778714
  42.000000   619.940950  615.752160  628.318531
  42.250000   783.287406  690.954034  706.858347
  42.500000   965.385243  765.763209  785.398163
  42.750000  1166.136286  840.179685  863.937980
  43.000000  1385.442360  914.203462  942.477796
  43.250000  1623.205292  987.834540 1021.017612
  43.500000  1879.326905 1061.072919 1099.557429
  43.750000  2153.709026 1133.918598 1178.097245
  44.000000  2446.253480 1206.371579 1256.637061
  44.250000  2756.862091 1278.431860 1335.176878
  44.500000  3085.436685 1350.099443 1413.716694
  44.750000  3431.879087 1421.374326 1492.256510
  45.000000  3796.091123 1492.256510 1570.796327
  45.250000  4177.974618 1562.745996 1649.336143
  45.500000  4577.431396 1632.842782 1727.875959
  45.750000  4994.363284 1702.546869 1806.415776
  46.000000  5428.672105 1771.858257 1884.955592
  46.250000  5880.259687 1840.776945 1963.495408
  46.500000  6349.027853 1909.302935 2042.035225
  46.750000  6834.878430 1977.436226 2120.575041
  47.000000  7337.713241 2045.176817 2199.114858
  47.250000  7857.434113 2112.524710 2277.654674
  47.500000  8393.942871 2179.479903 2356.194490
  47.750000  8947.141340 2246.042398 2434.734307
  48.000000  9516.931345 2312.212193 2513.274123
  48.250000 10103.214712 2377.989289 2591.813939
  48.500000 10705.893265 2443.373686 2670.353756
  48.750000 11324.868830 2508.365384 2748.893572
  49.000000 11960.043232 2572.964383 2827.433388
  49.250000 12611.318297 2637.170683 2905.973205
  49.500000 13278.595849 2700.984284 2984.513021
  49.750000 13961.777714 2764.405186 3063.052837
  50.000000 14660.765717 2827.433388 3141.592654
end table                                              
