begin options
  digits 10
  print_input
end options

begin Continuous FILEOUT lakeex4.lak.csv
  L1STAGE  STAGE  1
  L2STAGE  STAGE  2
  L3STAGE  STAGE  3
  L1VOL    VOLUME 1
  L1SA     SURFACE-AREA  1
  L1WA     WETTED-AREA  1 LAKE_1
  L1CONDUCTANCE   CONDUCTANCE   1 LAKE_1
  L2VOL    VOLUME 2
  L2SA     SURFACE-AREA  2
  L2WA     WETTED-AREA  2 LAKE_2
  L2CONDUCTANCE   CONDUCTANCE   2 LAKE_2
  L3VOL    VOLUME 3
  L3SA     SURFACE-AREA  3
  L3WA     WETTED-AREA  3 CLAKE-1
  L3CONDUCTANCE   CONDUCTANCE   3 CLAKE-1
end Continuous
