# DIS8 input file, prepared by MF5to6 on 4/1/2016 at 11:10:36.

BEGIN Options
  LENGTH_UNITS  UNDEFINED
END Options

BEGIN Dimensions
  NLAY  8
  NROW  36
  NCOL  23
END Dimensions

BEGIN GRIDDATA
  DELR
    CONSTANT    405.665000        DELR
  DELC
    CONSTANT    403.717000        DELC
  TOP LAYERED
    INTERNAL  FACTOR    1.00000000      IPRN  3    TOP array
   386.800000       391.680000       395.520000       398.880000       399.920000       398.480000       399.200000       399.920000       398.160000       397.920000    
   399.760000       399.200000       396.640000       396.080000       398.400000       399.920000       396.720000       395.360000       399.600000       397.920000    
   397.360000       399.520000       397.120000    
   382.000000       389.600000       393.440000       396.720000       397.760000       396.960000       397.600000       398.080000       396.800000       396.480000    
   397.680000       397.120000       394.960000       393.200000       395.040000       395.920000       392.960000       392.320000       395.200000       393.360000    
   392.640000       393.520000       391.520000    
   378.080000       382.080000       388.800000       391.600000       392.800000       393.520000       394.160000       394.240000       393.040000       392.560000    
   392.720000       392.080000       391.680000       389.440000       389.680000       388.160000       388.000000       386.880000       385.360000       383.840000    
   382.080000       380.960000       379.680000    
   373.040000       375.840000       380.080000       384.400000       386.080000       388.320000       389.280000       388.640000       388.080000       387.520000    
   387.200000       386.640000       385.440000       384.480000       381.760000       381.040000       379.280000       377.680000       376.080000       373.360000    
   370.160000       368.320000       366.160000    
   367.680000       369.120000       370.720000       374.000000       378.240000       381.920000       383.360000       382.720000       382.000000       381.200000    
   380.720000       380.560000       377.840000       376.800000       375.600000       374.400000       370.400000       368.880000       367.040000       362.800000    
   360.800000       360.400000       358.560000    
   362.880000       363.280000       363.520000       367.280000       370.080000       372.800000       376.320000       376.640000       375.280000       373.920000    
   373.600000       374.160000       372.480000       371.680000       368.320000       366.800000       365.360000       364.000000       361.280000       360.160000    
   358.400000       358.720000       359.040000    
   356.880000       357.920000       359.040000       359.680000       363.760000       367.280000       368.960000       371.280000       368.640000       365.440000    
   365.280000       366.800000       368.080000       365.760000       364.560000       361.600000       360.720000       358.720000       358.480000       358.800000    
   357.840000       358.720000       359.120000    
   356.000000       357.200000       357.600000       357.680000       358.880000       362.160000       365.440000       364.720000       363.040000       359.760000    
   359.920000       361.920000       363.520000       361.760000       361.760000       359.600000       357.600000       357.920000       357.600000       357.600000    
   357.600000       357.600000       357.600000    
   353.120000       354.640000       356.720000       356.960000       356.160000       357.440000       361.120000       362.560000       361.200000       358.080000    
   358.080000       360.480000       360.800000       359.120000       358.560000       357.600000       357.600000       357.600000       357.600000       357.600000    
   357.600000       357.600000       357.600000    
   344.480000       350.000000       351.600000       353.440000       352.720000       352.400000       357.600000       358.160000       359.520000       359.360000    
   358.880000       358.800000       359.040000       357.600000       357.600000       357.600000       357.600000       357.600000       357.600000       357.600000    
   357.600000       357.600000       357.600000    
   331.840000       336.400000       339.680000       344.160000       342.800000       347.360000       348.720000       356.000000       359.360000       358.160000    
   360.000000       358.960000       357.600000       357.600000       357.600000       357.600000       357.600000       357.600000       357.600000       357.600000    
   357.600000       357.600000       357.600000    
   316.640000       320.160000       321.520000       329.600000       333.680000       335.120000       337.200000       341.680000       348.320000       352.800000    
   357.600000       357.600000       357.600000       357.600000       357.600000       357.600000       357.600000       357.600000       357.600000       357.600000    
   357.600000       357.600000       357.600000    
   302.000000       304.240000       306.480000       308.480000       310.080000       314.000000       318.240000       329.200000       337.040000       344.160000    
   357.600000       357.600000       357.600000       357.600000       357.600000       357.600000       357.600000       357.600000       357.600000       357.600000    
   357.600000       357.600000       357.600000    
   294.880000       296.080000       297.760000       299.600000       301.600000       303.680000       310.240000       317.920000       326.240000       334.880000    
   347.840000       357.600000       357.600000       357.600000       357.600000       357.600000       357.600000       357.600000       357.600000       357.600000    
   357.600000       357.600000       357.600000    
   287.280000       287.520000       291.360000       293.040000       295.040000       297.040000       299.200000       306.160000       314.640000       323.520000    
   333.600000       346.960000       353.280000       357.600000       357.600000       357.600000       357.600000       357.600000       357.600000       357.600000    
   357.600000       357.600000       357.600000    
   284.480000       284.480000       285.040000       285.760000       290.320000       292.160000       294.000000       295.760000       303.040000       312.160000    
   323.040000       338.480000       346.400000       348.880000       353.840000       357.600000       357.600000       357.600000       357.600000       357.600000    
   357.600000       357.600000       357.600000    
   282.720000       282.640000       283.200000       283.920000       284.640000       285.200000       286.160000       287.360000       293.600000       301.840000    
   305.920000       333.840000       343.120000       345.680000       348.880000       353.920000       355.360000       356.560000       357.040000       357.280000    
   357.040000       357.040000       356.960000    
   281.600000       281.600000       281.600000       281.600000       281.600000       281.600000       281.600000       285.520000       286.480000       293.040000    
   301.840000       317.120000       332.720000       337.280000       345.200000       348.560000       351.360000       353.680000       356.000000       356.880000    
   356.560000       357.280000       356.000000    
   281.600000       281.600000       281.600000       281.600000       281.600000       281.600000       281.600000       281.600000       281.600000       290.480000    
   293.600000       306.880000       317.520000       327.520000       336.080000       340.160000       344.320000       349.920000       352.400000       353.440000    
   353.760000       353.760000       352.160000    
   281.600000       281.600000       281.600000       281.600000       281.600000       281.600000       281.600000       281.600000       281.600000       285.280000    
   291.040000       298.240000       311.200000       316.480000       325.040000       332.240000       336.400000       340.560000       343.920000       347.120000    
   347.440000       347.040000       345.840000    
   281.600000       281.600000       281.600000       281.600000       281.600000       281.600000       281.600000       281.600000       281.600000       281.600000    
   288.560000       294.080000       301.360000       309.040000       315.920000       318.960000       324.960000       329.440000       333.360000       335.200000    
   336.560000       335.360000       334.720000    
   281.600000       281.600000       281.600000       281.600000       281.600000       281.600000       281.600000       281.600000       281.600000       281.600000    
   286.000000       287.760000       293.440000       299.360000       303.440000       306.160000       308.400000       315.520000       320.720000       322.080000    
   319.360000       315.760000       317.520000    
   281.600000       281.600000       281.600000       281.600000       281.600000       281.600000       281.600000       281.600000       281.600000       281.600000    
   282.560000       285.040000       289.840000       294.480000       295.440000       291.920000       292.960000       301.280000       309.040000       309.840000    
   302.720000       294.880000       296.880000    
   281.600000       281.600000       281.600000       281.600000       281.600000       281.600000       281.600000       281.600000       281.600000       281.600000    
   281.520000       281.760000       284.400000       287.920000       288.080000       284.320000       283.040000       289.840000       298.960000       299.600000    
   292.560000       282.800000       285.600000    
   281.600000       281.600000       281.600000       281.600000       281.600000       281.600000       281.600000       281.600000       281.600000       280.960000    
   280.960000       279.680000       280.160000       284.960000       284.640000       282.960000       283.120000       287.680000       293.200000       293.840000    
   289.040000       284.240000       286.080000    
   281.600000       281.600000       281.600000       281.600000       281.600000       281.600000       281.600000       279.600000       279.360000       277.920000    
   278.240000       277.360000       274.400000       276.800000       280.240000       283.760000       283.120000       285.920000       288.000000       292.640000    
   290.800000       288.880000       289.600000    
   281.600000       281.600000       281.600000       281.600000       281.600000       281.600000       278.640000       278.000000       274.480000       274.320000    
   274.240000       271.520000       270.560000       273.280000       272.640000       274.000000       281.360000       284.240000       285.440000       286.320000    
   286.640000       290.800000       291.520000    
   281.040000       280.960000       279.680000       278.320000       277.520000       273.200000       272.320000       267.840000       266.800000       266.400000    
   266.400000       265.680000       265.280000       263.200000       266.960000       268.080000       272.000000       275.520000       281.120000       282.160000    
   283.120000       284.080000       290.240000    
   279.280000       279.200000       275.920000       273.040000       270.400000       268.400000       263.120000       261.360000       260.080000       259.520000    
   256.240000       256.000000       253.840000       254.560000       260.240000       261.280000       265.040000       266.080000       269.920000       276.080000    
   277.360000       275.520000       276.800000    
   279.760000       274.320000       267.920000       263.920000       264.160000       258.400000       255.520000       253.600000       252.400000       248.880000    
   248.400000       248.320000       246.560000       247.680000       248.720000       254.000000       254.720000       257.520000       258.720000       260.000000    
   262.880000       264.240000       273.280000    
   273.840000       263.600000       254.880000       253.200000       250.720000       247.920000       246.480000       244.480000       241.920000       241.120000    
   240.400000       238.480000       239.520000       241.280000       242.480000       243.680000       242.720000       250.240000       251.360000       254.800000    
   256.560000       258.480000       265.280000    
   257.760000       243.840000       233.120000       240.240000       243.120000       240.320000       234.960000       234.640000       234.960000       234.800000    
   232.880000       231.520000       233.440000       235.920000       237.200000       236.240000       237.200000       242.320000       243.520000       243.920000    
   248.000000       250.000000       252.640000    
   247.600000       233.920000       224.960000       233.760000       238.720000       235.200000       226.960000       226.000000       229.520000       230.480000    
   226.480000       226.080000       229.120000       232.160000       232.160000       231.520000       231.680000       233.200000       236.720000       237.040000    
   239.840000       241.680000       244.800000    
   245.760000       238.320000       234.080000       236.640000       237.760000       233.440000       225.920000       225.280000       228.560000       228.240000    
   224.880000       224.480000       227.520000       229.440000       229.600000       227.200000       226.960000       227.440000       230.240000       232.160000    
   231.920000       234.160000       237.840000    
   245.760000       242.880000       240.560000       240.080000       238.720000       235.760000       229.680000       228.800000       229.840000       228.240000    
   226.960000       226.640000       228.400000       228.080000       227.440000       225.920000       224.160000       225.120000       227.920000       227.840000    
   226.400000       228.320000       232.640000    
   247.040000       245.440000       243.760000       242.320000       240.400000       236.080000       233.520000       232.240000       231.840000       229.680000    
   228.720000       229.440000       230.000000       230.000000       228.560000       226.080000       224.560000       225.600000       226.800000       225.680000    
   224.080000       225.360000       230.080000    
  BOTM LAYERED
    INTERNAL  FACTOR    1.00000000      IPRN  3    BOTM layer 1
   33.3470700       33.9622300       34.4385900       34.8601700       34.9902700       34.8060800       34.9043500       34.9886300       34.7705800       34.7418300    
   34.9730400       34.8977900       34.5769600       34.5053800       34.7975100       34.9853600       34.5871300       34.4205600       34.9451400       34.7375900    
   34.6721500       34.9407700       34.6398900    
   32.7513300       33.6971600       34.1771300       34.5941000       34.7203300       34.6182800       34.7029500       34.7637500       34.5979100       34.5614900    
   34.7122200       34.6434300       34.3727900       34.1508000       34.3761400       34.4900400       34.1219100       34.0426300       34.4014600       34.1663900    
   34.0822400       34.1916600       33.9389600    
   32.2576300       32.7556600       33.5999900       33.9460800       34.1006000       34.1924700       34.2728000       34.2814200       34.1253300       34.0715800    
   34.0928900       34.0096700       33.9635800       33.6784600       33.7139900       33.5199700       33.4954900       33.3604900       33.1692700       32.9766100    
   32.7602500       32.6185800       32.4633700    
   31.6291200       31.9791000       32.5131000       33.0534100       33.2640900       33.5350400       33.6574900       33.5812700       33.5094200       33.4408300    
   33.3983800       33.3282500       33.1752600       33.0586100       32.7168700       32.6272800       32.4113200       32.2121400       32.0096600       31.6652600    
   31.2745400       31.0410400       30.7695600    
   30.9593000       31.1417500       31.3388400       31.7481400       32.2829400       32.7397700       32.9168900       32.8406600       32.7492200       32.6492200    
   32.5939500       32.5680800       32.2331700       32.1013700       31.9470100       31.7953800       31.3018000       31.1140500       30.8790800       30.3524300    
   30.1027400       30.0461700       29.8151000    
   30.3591200       30.4079100       30.4414600       30.9091500       31.2640500       31.6037300       32.0364000       32.0805200       31.9069300       31.7358500    
   31.6989100       31.7737000       31.5608800       31.4620000       31.0426600       30.8494000       30.6654100       30.4994900       30.1596000       30.0207200    
   29.7967000       29.8370500       29.8759800    
   29.6079800       29.7391100       29.8778600       29.9600100       30.4672000       30.9123500       31.1198800       31.4062200       31.0808500       30.6760900    
   30.6557500       30.8484600       31.0069700       30.7230700       30.5702700       30.2017500       30.0880600       29.8396600       29.8121400       29.8541700    
   29.7316700       29.8398200       29.8906400    
   29.4952500       29.6540000       29.7013100       29.7081700       29.8581800       30.2706100       30.6824500       30.5889700       30.3762300       29.9698800    
   29.9857800       30.2374200       30.4413000       30.2164100       30.2172900       29.9468700       29.7000000       29.7412800       29.7000000       29.7000000    
   29.7000000       29.7000000       29.7000000    
   29.1446000       29.3276100       29.5884900       29.6165300       29.5209800       29.6790900       30.1364800       30.3230300       30.1496900       29.7596300    
   29.7648000       30.0636500       30.1039500       29.8901600       29.8227700       29.7000000       29.7000000       29.7000000       29.7000000       29.7000000    
   29.7000000       29.7000000       29.7000000    
   28.0560500       28.7508100       28.9538200       29.1764800       29.0949500       29.0501700       29.7041100       29.7719400       29.9432300       29.9237100    
   29.8624600       29.8486700       29.8827000       29.7000000       29.7000000       29.7000000       29.7000000       29.7000000       29.7000000       29.7000000    
   29.7000000       29.7000000       29.7000000    
   26.4849700       27.0492100       27.4624800       28.0203600       27.8480600       28.4156100       28.5914300       29.5048100       29.9187300       29.7717700    
   30.0021900       29.8691900       29.7000000       29.7000000       29.7000000       29.7000000       29.7000000       29.7000000       29.7000000       29.7000000    
   29.7000000       29.7000000       29.7000000    
   24.5825400       25.0187900       25.1890500       26.2010900       26.7145100       26.8869800       27.1499700       27.7095600       28.5434100       29.0977300    
   29.7000000       29.7000000       29.7000000       29.7000000       29.7000000       29.7000000       29.7000000       29.7000000       29.7000000       29.7000000    
   29.7000000       29.7000000       29.7000000    
   22.7510800       23.0318300       23.3121700       23.5577100       23.7640500       24.2532800       24.7819900       26.1513600       27.1294700       28.0242100    
   29.7000000       29.7000000       29.7000000       29.7000000       29.7000000       29.7000000       29.7000000       29.7000000       29.7000000       29.7000000    
   29.7000000       29.7000000       29.7000000    
   21.8622500       22.0144800       22.2156900       22.4502400       22.6957400       22.9553000       23.7842300       24.7389800       25.7780200       26.8619600    
   28.4778800       29.7000000       29.7000000       29.7000000       29.7000000       29.7000000       29.7000000       29.7000000       29.7000000       29.7000000    
   29.7000000       29.7000000       29.7000000    
   20.9086500       20.9445000       21.4215900       21.6343100       21.8754500       22.1336400       22.3996400       23.2695000       24.3317600       25.4429300    
   26.7001900       28.3671800       29.1605000       29.7000000       29.7000000       29.7000000       29.7000000       29.7000000       29.7000000       29.7000000    
   29.7000000       29.7000000       29.7000000    
   20.5594700       20.5626900       20.6273900       20.7230900       21.2895200       21.5214800       21.7535600       21.9739100       22.8806700       24.0155800    
   25.3849900       27.3086500       28.2950800       28.6136800       29.2318300       29.7000000       29.7000000       29.7000000       29.7000000       29.7000000    
   29.7000000       29.7000000       29.7000000    
   20.3446500       20.3278000       20.3987000       20.4929300       20.5794400       20.6518000       20.7712700       20.9208100       21.7026400       22.7310400    
   23.2386400       26.7315800       27.8889100       28.2066600       28.6137800       29.2402800       29.4205600       29.5654700       29.6336000       29.6566800    
   29.6259100       29.6347500       29.6230300    
   20.2000000       20.2000000       20.2000000       20.2000000       20.2000000       20.2000000       20.2000000       20.6927500       20.8059900       21.6338300    
   22.7290200       24.6403900       26.5870100       27.1605900       28.1455500       28.5701000       28.9237200       29.2103200       29.4955400       29.6117700    
   29.5670700       29.6616700       29.4979100    
   20.2000000       20.2000000       20.2000000       20.2000000       20.2000000       20.2000000       20.2000000       20.2000000       20.2000000       21.3140000    
   21.7000300       23.3609600       24.6864200       25.9387200       27.0139400       27.5243900       28.0384400       28.7441500       29.0465700       29.1806700    
   29.2214100       29.2227200       29.0229800    
   20.2000000       20.2000000       20.2000000       20.2000000       20.2000000       20.2000000       20.2000000       20.2000000       20.2000000       20.6590700    
   21.3810300       22.2772700       23.9032000       24.5571300       25.6266000       26.5317300       27.0463700       27.5696100       27.9913400       28.3921300    
   28.4347700       28.3786200       28.2302500    
   20.2000000       20.2000000       20.2000000       20.2000000       20.2000000       20.2000000       20.2000000       20.2000000       20.2000000       20.2000000    
   21.0668600       21.7591300       22.6678500       23.6295400       24.4902200       24.8657400       25.6152600       26.1826600       26.6675900       26.8980200    
   27.0744200       26.9151900       26.8358100    
   20.2000000       20.2000000       20.2000000       20.2000000       20.2000000       20.2000000       20.2000000       20.2000000       20.2000000       20.2000000    
   20.7514300       20.9736500       21.6765300       22.4168100       22.9257500       23.2706600       23.5475200       24.4389300       25.0919900       25.2629900    
   24.9154800       24.4734400       24.6892900    
   20.2000000       20.2000000       20.2000000       20.2000000       20.2000000       20.2000000       20.2000000       20.2000000       20.2000000       20.2000000    
   20.3184500       20.6266400       21.2270300       21.8055500       21.9277000       21.4882200       21.6214500       22.6556400       23.6320300       23.7300600    
   22.8422300       21.8635500       22.1061300    
   20.2000000       20.2000000       20.2000000       20.2000000       20.2000000       20.2000000       20.2000000       20.2000000       20.2000000       20.2000000    
   20.1907900       20.2223100       20.5500900       20.9936900       21.0118400       20.5447700       20.3762800       21.2290600       22.3686300       22.4454100    
   21.5694500       20.3453100       20.6999200    
   20.2000000       20.2000000       20.2000000       20.2000000       20.2000000       20.2000000       20.2000000       20.2000000       20.2000000       20.1162600    
   20.1188300       19.9588700       20.0194300       20.6242100       20.5781200       20.3655900       20.3938000       20.9647000       21.6453700       21.7262700    
   21.1324300       20.5277300       20.7602000    
   20.2000000       20.2000000       20.2000000       20.2000000       20.2000000       20.2000000       20.2000000       19.9489900       19.9189900       19.7389300    
   19.7776500       19.6683600       19.3015700       19.6015800       20.0280900       20.4718400       20.3924600       20.7423100       20.9984700       21.5787400    
   21.3516100       21.1111400       21.2040800    
   20.2000000       20.2000000       20.2000000       20.2000000       20.2000000       20.2000000       19.8329700       19.7525400       19.3125100       19.2905900    
   19.2760500       18.9364500       18.8196000       19.1625300       19.0771900       19.2538200       20.1713500       20.5321400       20.6776500       20.7879300    
   20.8346300       21.3498700       21.4379100    
   20.1254800       20.1231000       19.9572000       19.7917000       19.6940000       19.1537300       19.0361800       18.4767000       18.3514800       18.3042600    
   18.2961400       18.2107600       18.1585600       17.8963900       18.3669700       18.5112900       18.9964800       19.4437500       20.1417300       20.2720800    
   20.3942800       20.5072900       21.2750500    
   19.9142400       19.8979300       19.4912600       19.1284900       18.7950800       18.5502700       17.8852800       17.6731500       17.5137500       17.4433700    
   17.0330100       17.0036800       16.7334700       16.8180100       17.5273700       17.6565500       18.1339100       18.2582900       18.7354300       19.5080800    
   19.6728400       19.4386000       19.5989500    
   19.9741100       19.2885800       18.4894800       17.9869800       18.0161000       17.3027400       16.9385700       16.6959500       16.5453300       16.1052600    
   16.0458300       16.0356400       15.8216700       15.9609000       16.0894600       16.7499200       16.8382300       17.1909400       17.3387300       17.4981600    
   17.8558700       18.0297000       19.1637900    
   19.2285400       17.9523400       16.8577800       16.6450800       16.3385500       15.9885500       15.8113900       15.5577000       15.2430200       15.1445300    
   15.0468600       14.8088400       14.9429900       15.1575700       15.3112900       15.4589400       15.3358500       16.2831500       16.4214900       16.8548400    
   17.0650500       17.3058000       18.1609100    
   17.2161000       15.4825000       14.1409000       15.0290200       15.3944900       15.0357900       14.3698000       14.3329200       14.3743300       14.3468900    
   14.1070800       13.9367500       14.1768600       14.4886700       14.6539200       14.5271300       14.6520900       15.2902600       15.4421200       15.4909400    
   15.9961300       16.2454800       16.5799300    
   15.9527800       14.2372900       13.1196300       14.2225300       14.8400200       14.3972300       13.3708700       13.2531700       13.6923400       13.8061200    
   13.3141800       13.2620900       13.6351500       14.0232000       14.0240100       13.9435100       13.9563500       14.1488500       14.5891600       14.6326600    
   14.9839600       15.2114700       15.6023000    
   15.7162300       14.7915400       14.2586600       14.5786200       14.7160700       14.1849100       13.2447500       13.1619600       13.5690000       13.5331900    
   13.1079500       13.0603500       13.4415600       13.6839600       13.6986800       13.4022700       13.3654100       13.4279200       13.7813100       14.0238300    
   13.9896900       14.2703800       14.7306100    
   15.7172800       15.3611100       15.0742800       15.0067800       14.8385600       14.4660200       13.7117500       13.6041500       13.7281900       13.5289800    
   13.3687400       13.3288800       13.5531200       13.5080400       13.4252400       13.2388900       13.0214200       13.1393800       13.4896700       13.4752200    
   13.2998100       13.5386900       14.0773000    
   15.8849100       15.6768600       15.4691900       15.2928200       15.0537800       14.5081300       14.1896000       14.0347300       13.9755400       13.7137800    
   13.5890900       13.6799000       13.7475900       13.7547300       13.5738400       13.2579400       13.0707800       13.2040700       13.3527700       13.2148000    
   13.0075200       13.1711400       13.7600300    
    INTERNAL  FACTOR    1.00000000      IPRN  3    BOTM layer 2
   18.3470700       18.9622300       19.4385900       19.8601700       19.9902700       19.8060800       19.9043600       19.9886300       19.7705800       19.7418300    
   19.9730400       19.8977900       19.5769600       19.5053800       19.7975100       19.9853600       19.5871300       19.4205600       19.9451400       19.7375900    
   19.6721500       19.9407700       19.6398900    
   17.7513300       18.6971600       19.1771300       19.5941000       19.7203400       19.6182800       19.7029500       19.7637500       19.5979100       19.5614900    
   19.7122200       19.6434300       19.3727900       19.1508000       19.3761400       19.4900300       19.1219100       19.0426300       19.4014600       19.1663900    
   19.0822400       19.1916600       18.9389600    
   17.2576300       17.7556600       18.5999900       18.9460800       19.1006000       19.1924700       19.2728100       19.2814200       19.1253300       19.0715800    