begin options
  digits 10
  print_input
end options

#
# Blocks defining continuous observations
#

begin continuous FILEOUT lbf.csv
  L2          head  2 3 3     # heads at lay 2 row 3 col 3
  L3          head  3 3 3     # heads at lay 3 row 3 col 3
end continuous

#
# Block defining single observations
#
