# DIS8 input file, prepared by MF5to6 on 3/7/2016 at 12:39:51.

BEGIN Options
  LENGTH_UNITS  UNDEFINED
END Options

BEGIN Dimensions
  NLAY  3
  NROW  5
  NCOL  5
END Dimensions

BEGIN GRIDDATA
  DELR
    CONSTANT    10.0000000        DELR
  DELC
    CONSTANT    10.0000000        DELC
  TOP LAYERED
    CONSTANT    15.0000000        TOP array
  BOTM LAYERED
    CONSTANT    5.00000000        BOTM layer 1
    CONSTANT    0.00000000        BOTM layer 2
    CONSTANT   -5.00000000        BOTM layer 3
  IDOMAIN LAYERED
    INTERNAL  FACTOR  1  IPRN  5    Idomain layer 1
    1    1    1    1    1
    1    1    1    1    1
    1    1    0    1    1
    1    1    1    1    1
    1    1    1    1    1
    CONSTANT  1  IPRN  5    Idomain layer 2
    CONSTANT  1  IPRN  5    Idomain layer 3
END GRIDDATA
