#option block.  Note -- no comments allowed on auxiliary line
begin options
  DEV_OLDSTORAGEFORMULATION
end options

BEGIN GRIDDATA
  iconvert LAYERED
    constant 1
    constant 1
    constant 1
  ss LAYERED
    constant 1.e-6
    constant 1.e-6
    constant 1.e-6
  sy LAYERED
    constant 0.25
    constant 0.25
    constant 0.25
END GRIDDATA
