begin options
  print_input
  print_flows
  boundnames
  DEV_GROUNDWATER_HEAD_CONDUCTANCE
  #DEV_NO_FINAL_RESIDUAL_CHECK
  OBS6 FILEIN        lbf.lak.obs
  #newton
end options

begin dimensions
  nlakes 1
  noutlets 0
end dimensions

BEGIN PACKAGEDATA
# lakeno    strt lakeconn  boundname
       1    7.50        5  fillerup
END PACKAGEDATA

BEGIN CONNECTIONDATA
# lakeno iconn layer row column       ctype bedleak belev telev  dx width
       1     1     2   3      3    VERTICAL     1.0     0     0   0     0
       1     2     1   2      3  HORIZONTAL     1.0     0     0 5.0    10
       1     3     1   3      2  HORIZONTAL     1.0     0     0 5.0    10
       1     4     1   3      4  HORIZONTAL     1.0     0     0 5.0    10
       1     5     1   4      3  HORIZONTAL     1.0     0     0 5.0    10
END CONNECTIONDATA

begin period 1
  1 RAINFALL 0.714275
  1 EVAPORATION 0.0
end period


