# sms8 input file, prepared by mf5to6 on 3/7/2016 at 12:39:51.

begin options
  print_option  summary
  complexity  simple
end options

begin nonlinear
  outer_dvclose   1e-6
  outer_maximum  500
  under_relaxation  none
  under_relaxation_theta    0.000000    
  under_relaxation_kappa    0.000000    
  under_relaxation_gamma    0.000000    
  under_relaxation_momentum    0.000000    
end nonlinear

begin linear
  inner_maximum  100
  inner_dvclose   1e-6
  inner_rclose   1e-3
  linear_acceleration  cg
  relaxation_factor 1.
  preconditioner_levels  0 7
  preconditioner_drop_tolerance   0. 0.1000000e-02
  number_orthogonalizations  2
  reordering_method  none
end linear
