# TDIS8 input file, prepared by MF5to6 on 3/7/2016 at 12:39:51.

BEGIN Options
  TIME_UNITS DAYS
END Options

BEGIN Dimensions
  NPER 1
END Dimensions

BEGIN PERIODDATA
    5.0000000              20    1.0000000      Items: PERLEN NSTP TSMULT
END PERIODDATA
