BEGIN options
END options

BEGIN dimensions
  MAXBOUND  30
END dimensions

BEGIN period  1
  1 1 11       0.90000000  100000.00000000      -2.00000000
  1 2 11       0.90000000  100000.00000000      -2.00000000
  1 3 11       0.90000000  100000.00000000      -2.00000000
  1 4 11       0.90000000  100000.00000000      -2.00000000
  1 5 11       0.90000000  100000.00000000      -2.00000000
  1 6 11       0.90000000  100000.00000000      -2.00000000
  1 7 11       0.90000000  100000.00000000      -2.00000000
  1 8 11       0.90000000  100000.00000000      -2.00000000
  1 9 11       0.90000000  100000.00000000      -2.00000000
  1 10 11       0.90000000  100000.00000000      -2.00000000
  1 11 11       0.90000000  100000.00000000      -2.00000000
  1 12 11       0.90000000  100000.00000000      -2.00000000
  1 13 11       0.90000000  100000.00000000      -2.00000000
  1 14 11       0.90000000  100000.00000000      -2.00000000
  1 15 11       0.90000000  100000.00000000      -2.00000000
END period  1

