BEGIN options
END options

BEGIN dimensions
  MAXBOUND  18
END dimensions

BEGIN period  1
  1 23 9       1.75000000  100000.00000000      -2.00000000
  1 24 9       1.65000000  100000.00000000      -2.00000000
  1 25 9       1.55000000  100000.00000000      -2.00000000
  1 26 9       1.45000000  100000.00000000      -2.00000000
  1 27 9       1.35000000  100000.00000000      -2.00000000
  1 28 9       1.25000000  100000.00000000      -2.00000000
  1 29 9       1.15000000  100000.00000000      -2.00000000
  1 30 9       1.05000000  100000.00000000      -2.00000000
  1 31 9       0.95000000  100000.00000000      -2.00000000
  1 32 9       0.85000000  100000.00000000      -2.00000000
  1 33 9       0.75000000  100000.00000000      -2.00000000
  1 34 9       0.65000000  100000.00000000      -2.00000000
  1 35 9       0.55000000  100000.00000000      -2.00000000
  1 36 9       0.45000000  100000.00000000      -2.00000000
  1 37 9       0.35000000  100000.00000000      -2.00000000
  1 38 9       0.25000000  100000.00000000      -2.00000000
  1 39 9       0.15000000  100000.00000000      -2.00000000
  1 40 9       0.05000000  100000.00000000      -2.00000000
END period  1

