BEGIN options
END options

BEGIN dimensions
  NLAY  5
  NROW  40
  NCOL  25
END dimensions

BEGIN griddata
  delr
    CONSTANT     500.00000000
  delc
    CONSTANT     500.00000000
  top
    CONSTANT     100.00000000
  botm  LAYERED
    INTERNAL  FACTOR  1.0
          -5.00000000      -5.00000000      -5.00000000      -5.00000000      -5.00000000      -5.00000000      -5.00000000      -5.00000000      -5.00000000      -5.00000000      -5.00000000      -5.00000000      -5.00000000      -5.00000000      -5.00000000      -5.00000000      -5.00000000      -5.00000000      -5.00000000      -5.00000000
          -5.00000000      -5.00000000      -5.00000000      -5.00000000      -5.00000000
          -5.00000000      -5.00000000      -5.00000000      -5.00000000      -5.00000000      -5.00000000      -5.00000000      -5.00000000      -5.00000000      -5.00000000      -5.00000000      -5.00000000      -5.00000000      -5.00000000      -5.00000000      -5.00000000      -5.00000000      -5.00000000      -5.00000000      -5.00000000
          -5.00000000      -5.00000000      -5.00000000      -5.00000000      -5.00000000
          -5.00000000      -5.00000000      -5.00000000      -5.00000000      -5.00000000      -5.00000000      -5.00000000      -5.00000000      -5.00000000      -5.00000000      -5.00000000      -5.00000000      -5.00000000      -5.00000000      -5.00000000      -5.00000000      -5.00000000      -5.00000000      -5.00000000      -5.00000000
          -5.00000000      -5.00000000      -5.00000000      -5.00000000      -5.00000000
          -5.00000000      -5.00000000      -5.00000000      -5.00000000      -5.00000000      -5.00000000      -5.00000000      -5.00000000      -5.00000000      -5.00000000      -5.00000000      -5.00000000      -5.00000000      -5.00000000      -5.00000000      -5.00000000      -5.00000000      -5.00000000      -5.00000000      -5.00000000
          -5.00000000      -5.00000000      -5.00000000      -5.00000000      -5.00000000
          -5.00000000      -5.00000000      -5.00000000      -5.00000000      -5.00000000      -5.00000000      -5.00000000      -5.00000000      -5.00000000      -5.00000000      -5.00000000      -5.00000000      -5.00000000      -5.00000000      -5.00000000      -5.00000000      -5.00000000      -5.00000000      -5.00000000      -5.00000000
          -5.00000000      -5.00000000      -5.00000000      -5.00000000      -5.00000000
          -5.00000000      -5.00000000      -5.00000000      -5.00000000      -5.00000000      -5.00000000      -5.00000000      -5.00000000      -5.00000000      -5.00000000      -5.00000000      -5.00000000      -5.00000000      -5.00000000      -5.00000000      -5.00000000      -5.00000000      -5.00000000      -5.00000000      -5.00000000
          -5.00000000      -5.00000000      -5.00000000      -5.00000000      -5.00000000
          -5.00000000      -5.00000000      -5.00000000      -5.00000000      -5.00000000      -5.00000000      -5.00000000      -5.00000000      -5.00000000      -5.00000000      -5.00000000      -5.00000000      -5.00000000      -5.00000000      -5.00000000      -5.00000000      -5.00000000      -5.00000000      -5.00000000      -5.00000000
          -5.00000000      -5.00000000      -5.00000000      -5.00000000      -5.00000000
          -5.00000000      -5.00000000      -5.00000000      -5.00000000      -5.00000000      -5.00000000      -5.00000000      -5.00000000      -5.00000000      -5.00000000      -5.00000000      -5.00000000      -5.00000000      -5.00000000      -5.00000000      -5.00000000      -5.00000000      -5.00000000      -5.00000000      -5.00000000
          -5.00000000      -5.00000000      -5.00000000      -5.00000000      -5.00000000
          -5.00000000      -5.00000000      -5.00000000      -5.00000000      -5.00000000      -5.00000000      -5.00000000      -5.00000000      -5.00000000      -5.00000000      -5.00000000      -5.00000000      -5.00000000      -5.00000000      -5.00000000      -5.00000000      -5.00000000      -5.00000000      -5.00000000      -5.00000000
          -5.00000000      -5.00000000      -5.00000000      -5.00000000      -5.00000000
          -5.00000000      -5.00000000      -5.00000000      -5.00000000      -5.00000000      -5.00000000      -5.00000000      -5.00000000      -5.00000000      -5.00000000      -5.00000000      -5.00000000      -5.00000000      -5.00000000      -5.00000000      -5.00000000      -5.00000000      -5.00000000      -5.00000000      -5.00000000
          -5.00000000      -5.00000000      -5.00000000      -5.00000000      -5.00000000
          -5.00000000      -5.00000000      -5.00000000      -5.00000000      -5.00000000      -5.00000000      -5.00000000      -5.00000000      -5.00000000      -5.00000000      -5.00000000      -5.00000000      -5.00000000      -5.00000000      -5.00000000      -5.00000000      -5.00000000      -5.00000000      -5.00000000      -5.00000000
          -5.00000000      -5.00000000      -5.00000000      -5.00000000      -5.00000000
          -5.00000000      -5.00000000      -5.00000000      -5.00000000      -5.00000000      -5.00000000      -5.00000000      -5.00000000      -5.00000000      -5.00000000      -5.00000000      -5.00000000      -5.00000000      -5.00000000      -5.00000000      -5.00000000      -5.00000000      -5.00000000      -5.00000000      -5.00000000
          -5.00000000      -5.00000000      -5.00000000      -5.00000000      -5.00000000
          -5.00000000      -5.00000000      -5.00000000      -5.00000000      -5.00000000      -5.00000000      -5.00000000      -5.00000000      -5.00000000      -5.00000000      -5.00000000      -5.00000000      -5.00000000      -5.00000000      -5.00000000      -5.00000000      -5.00000000      -5.00000000      -5.00000000      -5.00000000
          -5.00000000      -5.00000000      -5.00000000      -5.00000000      -5.00000000
          -5.00000000      -5.00000000      -5.00000000      -5.00000000      -5.00000000      -5.00000000      -5.00000000      -5.00000000      -5.00000000      -5.00000000      -5.00000000      -5.00000000      -5.00000000      -5.00000000      -5.00000000      -5.00000000      -5.00000000      -5.00000000      -5.00000000      -5.00000000
          -5.00000000      -5.00000000      -5.00000000      -5.00000000      -5.00000000
          -5.00000000      -5.00000000      -5.00000000      -5.00000000      -5.00000000      -5.00000000      -5.00000000      -5.00000000      -5.00000000      -5.00000000      -5.00000000      -5.00000000      -5.00000000      -5.00000000      -5.00000000      -5.00000000      -5.00000000      -5.00000000      -5.00000000      -5.00000000
          -5.00000000      -5.00000000      -5.00000000      -5.00000000      -5.00000000
          -5.00000000      -5.00000000      -5.00000000      -5.00000000      -5.00000000      -5.00000000      -5.00000000      -5.00000000      -5.00000000      -5.00000000      -5.00000000      -5.00000000      -5.00000000      -5.00000000      -5.00000000      -5.00000000      -5.00000000      -5.00000000      -5.00000000      -5.00000000
          -5.00000000      -5.00000000      -5.00000000      -5.00000000      -5.00000000
          -5.00000000      -5.00000000      -5.00000000      -5.00000000      -5.00000000      -5.00000000      -5.00000000      -5.00000000      -5.00000000      -5.00000000      -5.00000000      -5.00000000      -5.00000000      -5.00000000      -5.00000000      -5.00000000      -5.00000000      -5.00000000      -5.00000000      -5.00000000
          -5.00000000      -5.00000000      -5.00000000      -5.00000000      -5.00000000
          -5.00000000      -5.00000000      -5.00000000      -5.00000000      -5.00000000      -5.00000000      -5.00000000      -5.00000000      -5.00000000      -5.00000000      -5.00000000      -5.00000000      -5.00000000      -5.00000000      -5.00000000      -5.00000000      -5.00000000      -5.00000000      -5.00000000      -5.00000000
          -5.00000000      -5.00000000      -5.00000000      -5.00000000      -5.00000000
          -5.00000000      -5.00000000      -5.00000000      -5.00000000      -5.00000000      -5.00000000      -5.00000000      -5.00000000      -5.00000000      -5.00000000      -5.00000000      -5.00000000      -5.00000000      -5.00000000      -5.00000000      -5.00000000      -5.00000000      -5.00000000      -5.00000000      -5.00000000
          -5.00000000      -5.00000000      -5.00000000      -5.00000000      -5.00000000
          -5.00000000      -5.00000000      -5.00000000      -5.00000000      -5.00000000      -5.00000000      -5.00000000      -5.00000000      -5.00000000      -5.00000000      -5.00000000      -5.00000000      -5.00000000      -5.00000000      -5.00000000      -5.00000000      -5.00000000      -5.00000000      -5.00000000      -5.00000000
          -5.00000000      -5.00000000      -5.00000000      -5.00000000      -5.00000000
          -5.00000000      -5.00000000      -5.00000000      -5.00000000      -5.00000000      -5.00000000      -5.00000000      -5.00000000      -5.00000000      -5.00000000      -5.00000000      -5.00000000      -5.00000000      -5.00000000      -5.00000000      -5.00000000      -5.00000000      -5.00000000      -5.00000000      -5.00000000
          -5.00000000      -5.00000000      -5.00000000      -5.00000000      -5.00000000
          -5.00000000      -5.00000000      -5.00000000      -5.00000000      -5.00000000      -5.00000000      -5.00000000      -5.00000000      -5.00000000      -5.00000000      -5.00000000      -5.00000000      -5.00000000      -5.00000000      -5.00000000      -5.00000000      -5.00000000      -5.00000000      -5.00000000      -5.00000000
          -5.00000000      -5.00000000      -5.00000000      -5.00000000      -5.00000000
          -5.00000000      -5.00000000      -5.00000000      -5.00000000      -5.00000000      -5.00000000      -5.00000000      -5.00000000      -5.00000000      -5.00000000      -5.00000000      -5.00000000      -5.00000000      -5.00000000      -5.00000000      -5.00000000      -5.00000000      -5.00000000      -5.00000000      -5.00000000
          -5.00000000      -5.00000000      -5.00000000      -5.00000000      -5.00000000
          -5.00000000      -5.00000000      -5.00000000      -5.00000000      -5.00000000      -5.00000000      -5.00000000      -5.00000000      -5.00000000      -5.00000000      -5.00000000      -5.00000000      -5.00000000      -5.00000000      -5.00000000      -5.00000000      -5.00000000      -5.00000000      -5.00000000      -5.00000000
          -5.00000000      -5.00000000      -5.00000000      -5.00000000      -5.00000000
          -5.00000000      -5.00000000      -5.00000000      -5.00000000      -5.00000000      -5.00000000      -5.00000000      -5.00000000      -5.00000000      -5.00000000      -5.00000000      -5.00000000      -5.00000000      -5.00000000      -5.00000000      -5.00000000      -5.00000000      -5.00000000      -5.00000000      -5.00000000
          -5.00000000      -5.00000000      -5.00000000      -5.00000000      -5.00000000
          -5.00000000      -5.00000000      -5.00000000      -5.00000000      -5.00000000      -5.00000000      -5.00000000      -5.00000000      -5.00000000      -5.00000000      -5.00000000      -5.00000000      -5.00000000      -5.00000000      -5.00000000      -5.00000000      -5.00000000      -5.00000000      -5.00000000      -5.00000000
          -5.00000000      -5.00000000      -5.00000000      -5.00000000      -5.00000000
          -5.00000000      -5.00000000      -5.00000000      -5.00000000      -5.00000000      -5.00000000      -5.00000000      -5.00000000      -5.00000000      -5.00000000      -5.00000000      -5.00000000      -5.00000000      -5.00000000      -5.00000000      -5.00000000      -5.00000000      -5.00000000      -5.00000000      -5.00000000
          -5.00000000      -5.00000000      -5.00000000      -5.00000000      -5.00000000
          -5.00000000      -5.00000000      -5.00000000      -5.00000000      -5.00000000      -5.00000000      -5.00000000      -5.00000000      -5.00000000      -5.00000000      -5.00000000      -5.00000000      -5.00000000      -5.00000000      -5.00000000      -5.00000000      -5.00000000      -5.00000000      -5.00000000      -5.00000000
          -5.00000000      -5.00000000      -5.00000000      -5.00000000      -5.00000000
          -5.00000000      -5.00000000      -5.00000000      -5.00000000      -5.00000000      -5.00000000      -5.00000000      -5.00000000      -5.00000000      -5.00000000      -5.00000000      -5.00000000      -5.00000000      -5.00000000      -5.00000000      -5.00000000      -5.00000000      -5.00000000      -5.00000000      -5.00000000
          -5.00000000      -5.00000000      -5.00000000      -5.00000000      -5.00000000
          -5.00000000      -5.00000000      -5.00000000      -5.00000000      -5.00000000      -5.00000000      -5.00000000      -5.00000000      -5.00000000      -5.00000000      -5.00000000      -5.00000000      -5.00000000      -5.00000000      -5.00000000      -5.00000000      -5.00000000      -5.00000000      -5.00000000      -5.00000000
          -5.00000000      -5.00000000      -5.00000000      -5.00000000      -5.00000000
          -5.00000000      -5.00000000      -5.00000000      -5.00000000      -5.00000000      -5.00000000      -5.00000000      -5.00000000      -5.00000000      -5.00000000      -5.00000000      -5.00000000      -5.00000000      -5.00000000      -5.00000000      -5.00000000      -5.00000000      -5.00000000      -5.00000000      -5.00000000
          -5.00000000      -5.00000000      -5.00000000      -5.00000000      -5.00000000
          -5.00000000      -5.00000000      -5.00000000      -5.00000000      -5.00000000      -5.00000000      -5.00000000      -5.00000000      -5.00000000      -5.00000000      -5.00000000      -5.00000000      -5.00000000      -5.00000000      -5.00000000      -5.00000000      -5.00000000      -5.00000000      -5.00000000      -5.00000000
          -5.00000000      -5.00000000      -5.00000000      -5.00000000      -5.00000000
          -5.00000000      -5.00000000      -5.00000000      -5.00000000      -5.00000000      -5.00000000      -5.00000000      -5.00000000      -5.00000000      -5.00000000      -5.00000000      -5.00000000      -5.00000000      -5.00000000      -5.00000000      -5.00000000      -5.00000000      -5.00000000      -5.00000000      -5.00000000
          -5.00000000      -5.00000000      -5.00000000      -5.00000000      -5.00000000
          -5.00000000      -5.00000000      -5.00000000      -5.00000000      -5.00000000      -5.00000000      -5.00000000      -5.00000000      -5.00000000      -5.00000000      -5.00000000      -5.00000000      -5.00000000      -5.00000000      -5.00000000      -5.00000000      -5.00000000      -5.00000000      -5.00000000      -5.00000000
          -5.00000000      -5.00000000      -5.00000000      -5.00000000      -5.00000000
          -5.00000000      -5.00000000      -5.00000000      -5.00000000      -5.00000000      -5.00000000      -5.00000000      -5.00000000      -5.00000000      -5.00000000      -5.00000000      -5.00000000      -5.00000000      -5.00000000      -5.00000000      -5.00000000      -5.00000000      -5.00000000      -5.00000000      -5.00000000
          -5.00000000      -5.00000000      -5.00000000      -5.00000000      -5.00000000
          -5.00000000      -5.00000000      -5.00000000      -5.00000000      -5.00000000      -5.00000000      -5.00000000      -5.00000000      -5.00000000      -5.00000000      -5.00000000      -5.00000000      -5.00000000      -5.00000000      -5.00000000      -5.00000000      -5.00000000      -5.00000000      -5.00000000      -5.00000000
          -5.00000000      -5.00000000      -5.00000000      -5.00000000      -5.00000000
          -5.00000000      -5.00000000      -5.00000000      -5.00000000      -5.00000000      -5.00000000      -5.00000000      -5.00000000      -5.00000000      -5.00000000      -5.00000000      -5.00000000      -5.00000000      -5.00000000      -5.00000000      -5.00000000      -5.00000000      -5.00000000      -5.00000000      -5.00000000
          -5.00000000      -5.00000000      -5.00000000      -5.00000000      -5.00000000
          -5.00000000      -5.00000000      -5.00000000      -5.00000000      -5.00000000      -5.00000000      -5.00000000      -5.00000000      -5.00000000      -5.00000000      -5.00000000      -5.00000000      -5.00000000      -5.00000000      -5.00000000      -5.00000000      -5.00000000      -5.00000000      -5.00000000      -5.00000000
          -5.00000000      -5.00000000      -5.00000000      -5.00000000      -5.00000000
          -5.00000000      -5.00000000      -5.00000000      -5.00000000      -5.00000000      -5.00000000      -5.00000000      -5.00000000      -5.00000000      -5.00000000      -5.00000000      -5.00000000      -5.00000000      -5.00000000      -5.00000000      -5.00000000      -5.00000000      -5.00000000      -5.00000000      -5.00000000
          -5.00000000      -5.00000000      -5.00000000      -5.00000000      -5.00000000
          -5.00000000      -5.00000000      -5.00000000      -5.00000000      -5.00000000      -5.00000000      -5.00000000      -5.00000000      -5.00000000      -5.00000000      -5.00000000      -5.00000000      -5.00000000      -5.00000000      -5.00000000      -5.00000000      -5.00000000      -5.00000000      -5.00000000      -5.00000000
          -5.00000000      -5.00000000      -5.00000000      -5.00000000      -5.00000000
    INTERNAL  FACTOR  1.0
         -50.00000000     -50.00000000     -50.00000000     -50.00000000     -50.00000000     -50.00000000     -50.00000000     -50.00000000     -50.00000000     -50.00000000     -50.00000000     -50.00000000     -50.00000000     -50.00000000     -50.00000000     -50.00000000     -50.00000000     -50.00000000     -50.00000000     -50.00000000
         -50.00000000     -50.00000000     -50.00000000     -50.00000000     -50.00000000
         -50.00000000     -50.00000000     -50.00000000     -50.00000000     -50.00000000     -50.00000000     -50.00000000     -50.00000000     -50.00000000     -50.00000000     -50.00000000     -50.00000000     -50.00000000     -50.00000000     -50.00000000     -50.00000000     -50.00000000     -50.00000000     -50.00000000     -50.00000000
         -50.00000000     -50.00000000     -50.00000000     -50.00000000     -50.00000000
         -50.00000000     -50.00000000     -50.00000000     -50.00000000     -50.00000000     -50.00000000     -50.00000000     -50.00000000     -50.00000000     -50.00000000     -50.00000000     -50.00000000     -50.00000000     -50.00000000     -50.00000000     -50.00000000     -50.00000000     -50.00000000     -50.00000000     -50.00000000
         -50.00000000     -50.00000000     -50.00000000     -50.00000000     -50.00000000
         -50.00000000     -50.00000000     -50.00000000     -50.00000000     -50.00000000     -50.00000000     -50.00000000     -50.00000000     -50.00000000     -50.00000000     -50.00000000     -50.00000000     -50.00000000     -50.00000000     -50.00000000     -50.00000000     -50.00000000     -50.00000000     -50.00000000     -50.00000000
         -50.00000000     -50.00000000     -50.00000000     -50.00000000     -50.00000000
         -50.00000000     -50.00000000     -50.00000000     -50.00000000     -50.00000000     -50.00000000     -50.00000000     -50.00000000     -50.00000000     -50.00000000     -50.00000000     -50.00000000     -50.00000000     -50.00000000     -50.00000000     -50.00000000     -50.00000000     -50.00000000     -50.00000000     -50.00000000
         -50.00000000     -50.00000000     -50.00000000     -50.00000000     -50.00000000
         -50.00000000     -50.00000000     -50.00000000     -50.00000000     -50.00000000     -50.00000000     -50.00000000     -50.00000000     -50.00000000     -50.00000000     -50.00000000     -50.00000000     -50.00000000     -50.00000000     -50.00000000     -50.00000000     -50.00000000     -50.00000000     -50.00000000     -50.00000000
         -50.00000000     -50.00000000     -50.00000000     -50.00000000     -50.00000000
         -50.00000000     -50.00000000     -50.00000000     -50.00000000     -50.00000000     -50.00000000     -50.00000000     -50.00000000     -50.00000000     -50.00000000     -50.00000000     -50.00000000     -50.00000000     -50.00000000     -50.00000000     -50.00000000     -50.00000000     -50.00000000     -50.00000000     -50.00000000
         -50.00000000     -50.00000000     -50.00000000     -50.00000000     -50.00000000
         -50.00000000     -50.00000000     -50.00000000     -50.00000000     -50.00000000     -50.00000000     -50.00000000     -50.00000000     -50.00000000     -50.00000000     -50.00000000     -50.00000000     -50.00000000     -50.00000000     -50.00000000     -50.00000000     -50.00000000     -50.00000000     -50.00000000     -50.00000000
         -50.00000000     -50.00000000     -50.00000000     -50.00000000     -50.00000000
         -50.00000000     -50.00000000     -50.00000000     -50.00000000     -50.00000000     -50.00000000     -50.00000000     -50.00000000     -50.00000000     -50.00000000     -50.00000000     -50.00000000     -50.00000000     -50.00000000     -50.00000000     -50.00000000     -50.00000000     -50.00000000     -50.00000000     -50.00000000
         -50.00000000     -50.00000000     -50.00000000     -50.00000000     -50.00000000
         -50.00000000     -50.00000000     -50.00000000     -50.00000000     -50.00000000     -50.00000000     -50.00000000     -50.00000000     -50.00000000     -50.00000000     -50.00000000     -50.00000000     -50.00000000     -50.00000000     -50.00000000     -50.00000000     -50.00000000     -50.00000000     -50.00000000     -50.00000000
         -50.00000000     -50.00000000     -50.00000000     -50.00000000     -50.00000000
         -50.00000000     -50.00000000     -50.00000000     -50.00000000     -50.00000000     -50.00000000     -50.00000000     -50.00000000     -50.00000000     -50.00000000     -50.00000000     -50.00000000     -50.00000000     -50.00000000     -50.00000000     -50.00000000     -50.00000000     -50.00000000     -50.00000000     -50.00000000
         -50.00000000     -50.00000000     -50.00000000     -50.00000000     -50.00000000
         -50.00000000     -50.00000000     -50.00000000     -50.00000000     -50.00000000     -50.00000000     -50.00000000     -50.00000000     -50.00000000     -50.00000000     -50.00000000     -50.00000000     -50.00000000     -50.00000000     -50.00000000     -50.00000000     -50.00000000     -50.00000000     -50.00000000     -50.00000000
         -50.00000000     -50.00000000     -50.00000000     -50.00000000     -50.00000000
         -50.00000000     -50.00000000     -50.00000000     -50.00000000     -50.00000000     -50.00000000     -50.00000000     -50.00000000     -50.00000000     -50.00000000     -50.00000000     -50.00000000     -50.00000000     -50.00000000     -50.00000000     -50.00000000     -50.00000000     -50.00000000     -50.00000000     -50.00000000
         -50.00000000     -50.00000000     -50.00000000     -50.00000000     -50.00000000
         -50.00000000     -50.00000000     -50.00000000     -50.00000000     -50.00000000     -50.00000000     -50.00000000     -50.00000000     -50.00000000     -50.00000000     -50.00000000     -50.00000000     -50.00000000     -50.00000000     -50.00000000     -50.00000000     -50.00000000     -50.00000000     -50.00000000     -50.00000000
         -50.00000000     -50.00000000     -50.00000000     -50.00000000     -50.00000000
         -50.00000000     -50.00000000     -50.00000000     -50.00000000     -50.00000000     -50.00000000     -50.00000000     -50.00000000     -50.00000000     -50.00000000     -50.00000000     -50.00000000     -50.00000000     -50.00000000     -50.00000000     -50.00000000     -50.00000000     -50.00000000     -50.00000000     -50.00000000
         -50.00000000     -50.00000000     -50.00000000     -50.00000000     -50.00000000
         -50.00000000     -50.00000000     -50.00000000     -50.00000000     -50.00000000     -50.00000000     -50.00000000     -50.00000000     -50.00000000     -50.00000000     -50.00000000     -50.00000000     -50.00000000     -50.00000000     -50.00000000     -50.00000000     -50.00000000     -50.00000000     -50.00000000     -50.00000000
         -50.00000000     -50.00000000     -50.00000000     -50.00000000     -50.00000000
         -50.00000000     -50.00000000     -50.00000000     -50.00000000     -50.00000000     -50.00000000     -50.00000000     -50.00000000     -50.00000000     -50.00000000     -50.00000000     -50.00000000     -50.00000000     -50.00000000     -50.00000000     -50.00000000     -50.00000000     -50.00000000     -50.00000000     -50.00000000
         -50.00000000     -50.00000000     -50.00000000     -50.00000000     -50.00000000
         -50.00000000     -50.00000000     -50.00000000     -50.00000000     -50.00000000     -50.00000000     -50.00000000     -50.00000000     -50.00000000     -50.00000000     -50.00000000     -50.00000000     -50.00000000     -50.00000000     -50.00000000     -50.00000000     -50.00000000     -50.00000000     -50.00000000     -50.00000000
         -50.00000000     -50.00000000     -50.00000000     -50.00000000     -50.00000000
         -50.00000000     -50.00000000     -50.00000000     -50.00000000     -50.00000000     -50.00000000     -50.00000000     -50.00000000     -50.00000000     -50.00000000     -50.00000000     -50.00000000     -50.00000000     -50.00000000     -50.00000000     -50.00000000     -50.00000000     -50.00000000     -50.00000000     -50.00000000
         -50.00000000     -50.00000000     -50.00000000     -50.00000000     -50.00000000
         -50.00000000     -50.00000000     -50.00000000     -50.00000000     -50.00000000     -50.00000000     -50.00000000     -50.00000000     -50.00000000     -50.00000000     -50.00000000     -50.00000000     -50.00000000     -50.00000000     -50.00000000     -50.00000000     -50.00000000     -50.00000000     -50.00000000     -50.00000000
         -50.00000000     -50.00000000     -50.00000000     -50.00000000     -50.00000000
         -50.00000000     -50.00000000     -50.00000000     -50.00000000     -50.00000000     -50.00000000     -50.00000000     -50.00000000     -50.00000000     -50.00000000     -50.00000000     -50.00000000     -50.00000000     -50.00000000     -50.00000000     -50.00000000     -50.00000000     -50.00000000     -50.00000000     -50.00000000
         -50.00000000     -50.00000000     -50.00000000     -50.00000000     -50.00000000
         -50.00000000     -50.00000000     -50.00000000     -50.00000000     -50.00000000     -50.00000000     -50.00000000     -50.00000000     -50.00000000     -50.00000000     -50.00000000     -50.00000000     -50.00000000     -50.00000000     -50.00000000     -50.00000000     -50.00000000     -50.00000000     -50.00000000     -50.00000000
         -50.00000000     -50.00000000     -50.00000000     -50.00000000     -50.00000000
         -50.00000000     -50.00000000     -50.00000000     -50.00000000     -50.00000000     -50.00000000     -50.00000000     -50.00000000     -50.00000000     -50.00000000     -50.00000000     -50.00000000     -50.00000000     -50.00000000     -50.00000000     -50.00000000     -50.00000000     -50.00000000     -50.00000000     -50.00000000
         -50.00000000     -50.00000000     -50.00000000     -50.00000000     -50.00000000
         -50.00000000     -50.00000000     -50.00000000     -50.00000000     -50.00000000     -50.00000000     -50.00000000     -50.00000000     -50.00000000     -50.00000000     -50.00000000     -50.00000000     -50.00000000     -50.00000000     -50.00000000     -50.00000000     -50.00000000     -50.00000000     -50.00000000     -50.00000000
         -50.00000000     -50.00000000     -50.00000000     -50.00000000     -50.00000000
         -50.00000000     -50.00000000     -50.00000000     -50.00000000     -50.00000000     -50.00000000     -50.00000000     -50.00000000     -50.00000000     -50.00000000     -50.00000000     -50.00000000     -50.00000000     -50.00000000     -50.00000000     -50.00000000     -50.00000000     -50.00000000     -50.00000000     -50.00000000
         -50.00000000     -50.00000000     -50.00000000     -50.00000000     -50.00000000
         -50.00000000     -50.00000000     -50.00000000     -50.00000000     -50.00000000     -50.00000000     -50.00000000     -50.00000000     -50.00000000     -50.00000000     -50.00000000     -50.00000000     -50.00000000     -50.00000000     -50.00000000     -50.00000000     -50.00000000     -50.00000000     -50.00000000     -50.00000000
         -50.00000000     -50.00000000     -50.00000000     -50.00000000     -50.00000000
         -50.00000000     -50.00000000     -50.00000000     -50.00000000     -50.00000000     -50.00000000     -50.00000000     -50.00000000     -50.00000000     -50.00000000     -50.00000000     -50.00000000     -50.00000000     -50.00000000     -50.00000000     -50.00000000     -50.00000000     -50.00000000     -50.00000000     -50.00000000
         -50.00000000     -50.00000000     -50.00000000     -50.00000000     -50.00000000
         -50.00000000     -50.00000000     -50.00000000     -50.00000000     -50.00000000     -50.00000000     -50.00000000     -50.00000000     -50.00000000     -50.00000000     -50.00000000     -50.00000000     -50.00000000     -50.00000000     -50.00000000     -50.00000000     -50.00000000     -50.00000000     -50.00000000     -50.00000000
         -50.00000000     -50.00000000     -50.00000000     -50.00000000     -50.00000000