BEGIN griddata
  strt
    CONSTANT      11.00000000
END griddata

