BEGIN options
  COMPLEXITY  complex
END options

