BEGIN options
END options

BEGIN dimensions
  MAXBOUND  8
END dimensions

BEGIN period  1
  1 23 9       1.75000000  100000.00000000      -2.00000000
  1 24 9       1.65000000  100000.00000000      -2.00000000
  1 25 9       1.55000000  100000.00000000      -2.00000000
  1 36 9       0.45000000  100000.00000000      -2.00000000
  1 37 9       0.35000000  100000.00000000      -2.00000000
  1 38 9       0.25000000  100000.00000000      -2.00000000
  1 39 9       0.15000000  100000.00000000      -2.00000000
  1 40 9       0.05000000  100000.00000000      -2.00000000
END period  1

