BEGIN options
  auxiliary  angldegx  cdist
END options

BEGIN dimensions
  NEXG  360
END dimensions

BEGIN exchangedata
  1 31 5  1 16 1  1     250.00000000      83.33333333     166.66666667       0.00000000     372.67799625
  1 31 20  1 16 42  1     250.00000000      83.33333333     166.66666667     180.00000000     372.67799625
  1 31 5  1 17 1  1     250.00000000      83.33333333     166.66666667       0.00000000     333.33333333
  1 31 20  1 17 42  1     250.00000000      83.33333333     166.66666667     180.00000000     333.33333333
  1 31 5  1 18 1  1     250.00000000      83.33333333     166.66666667       0.00000000     372.67799625
  1 31 20  1 18 42  1     250.00000000      83.33333333     166.66666667     180.00000000     372.67799625
  1 32 5  1 19 1  1     250.00000000      83.33333333     166.66666667       0.00000000     372.67799625
  1 32 20  1 19 42  1     250.00000000      83.33333333     166.66666667     180.00000000     372.67799625
  1 32 5  1 20 1  1     250.00000000      83.33333333     166.66666667       0.00000000     333.33333333
  1 32 20  1 20 42  1     250.00000000      83.33333333     166.66666667     180.00000000     333.33333333
  1 32 5  1 21 1  1     250.00000000      83.33333333     166.66666667       0.00000000     372.67799625
  1 32 20  1 21 42  1     250.00000000      83.33333333     166.66666667     180.00000000     372.67799625
  1 33 5  1 22 1  1     250.00000000      83.33333333     166.66666667       0.00000000     372.67799625
  1 33 20  1 22 42  1     250.00000000      83.33333333     166.66666667     180.00000000     372.67799625
  1 33 5  1 23 1  1     250.00000000      83.33333333     166.66666667       0.00000000     333.33333333
  1 33 20  1 23 42  1     250.00000000      83.33333333     166.66666667     180.00000000     333.33333333
  1 33 5  1 24 1  1     250.00000000      83.33333333     166.66666667       0.00000000     372.67799625
  1 33 20  1 24 42  1     250.00000000      83.33333333     166.66666667     180.00000000     372.67799625
  1 34 5  1 25 1  1     250.00000000      83.33333333     166.66666667       0.00000000     372.67799625
  1 34 20  1 25 42  1     250.00000000      83.33333333     166.66666667     180.00000000     372.67799625
  1 34 5  1 26 1  1     250.00000000      83.33333333     166.66666667       0.00000000     333.33333333
  1 34 20  1 26 42  1     250.00000000      83.33333333     166.66666667     180.00000000     333.33333333
  1 34 5  1 27 1  1     250.00000000      83.33333333     166.66666667       0.00000000     372.67799625
  1 34 20  1 27 42  1     250.00000000      83.33333333     166.66666667     180.00000000     372.67799625
  1 35 5  1 28 1  1     250.00000000      83.33333333     166.66666667       0.00000000     372.67799625
  1 35 20  1 28 42  1     250.00000000      83.33333333     166.66666667     180.00000000     372.67799625
  1 35 5  1 29 1  1     250.00000000      83.33333333     166.66666667       0.00000000     333.33333333
  1 35 20  1 29 42  1     250.00000000      83.33333333     166.66666667     180.00000000     333.33333333
  1 35 5  1 30 1  1     250.00000000      83.33333333     166.66666667       0.00000000     372.67799625
  1 36 6  1 30 1  1     250.00000000      83.33333333     166.66666667      90.00000000     372.67799625
  1 36 6  1 30 2  1     250.00000000      83.33333333     166.66666667      90.00000000     333.33333333
  1 36 6  1 30 3  1     250.00000000      83.33333333     166.66666667      90.00000000     372.67799625
  1 36 7  1 30 4  1     250.00000000      83.33333333     166.66666667      90.00000000     372.67799625
  1 36 7  1 30 5  1     250.00000000      83.33333333     166.66666667      90.00000000     333.33333333
  1 36 7  1 30 6  1     250.00000000      83.33333333     166.66666667      90.00000000     372.67799625
  1 36 8  1 30 7  1     250.00000000      83.33333333     166.66666667      90.00000000     372.67799625
  1 36 8  1 30 8  1     250.00000000      83.33333333     166.66666667      90.00000000     333.33333333
  1 36 8  1 30 9  1     250.00000000      83.33333333     166.66666667      90.00000000     372.67799625
  1 36 9  1 30 10  1     250.00000000      83.33333333     166.66666667      90.00000000     372.67799625
  1 36 9  1 30 11  1     250.00000000      83.33333333     166.66666667      90.00000000     333.33333333
  1 36 9  1 30 12  1     250.00000000      83.33333333     166.66666667      90.00000000     372.67799625
  1 36 10  1 30 13  1     250.00000000      83.33333333     166.66666667      90.00000000     372.67799625
  1 36 10  1 30 14  1     250.00000000      83.33333333     166.66666667      90.00000000     333.33333333
  1 36 10  1 30 15  1     250.00000000      83.33333333     166.66666667      90.00000000     372.67799625
  1 36 11  1 30 16  1     250.00000000      83.33333333     166.66666667      90.00000000     372.67799625
  1 36 11  1 30 17  1     250.00000000      83.33333333     166.66666667      90.00000000     333.33333333
  1 36 11  1 30 18  1     250.00000000      83.33333333     166.66666667      90.00000000     372.67799625
  1 36 12  1 30 19  1     250.00000000      83.33333333     166.66666667      90.00000000     372.67799625
  1 36 12  1 30 20  1     250.00000000      83.33333333     166.66666667      90.00000000     333.33333333
  1 36 12  1 30 21  1     250.00000000      83.33333333     166.66666667      90.00000000     372.67799625
  1 36 13  1 30 22  1     250.00000000      83.33333333     166.66666667      90.00000000     372.67799625
  1 36 13  1 30 23  1     250.00000000      83.33333333     166.66666667      90.00000000     333.33333333
  1 36 13  1 30 24  1     250.00000000      83.33333333     166.66666667      90.00000000     372.67799625
  1 36 14  1 30 25  1     250.00000000      83.33333333     166.66666667      90.00000000     372.67799625
  1 36 14  1 30 26  1     250.00000000      83.33333333     166.66666667      90.00000000     333.33333333
  1 36 14  1 30 27  1     250.00000000      83.33333333     166.66666667      90.00000000     372.67799625
  1 36 15  1 30 28  1     250.00000000      83.33333333     166.66666667      90.00000000     372.67799625
  1 36 15  1 30 29  1     250.00000000      83.33333333     166.66666667      90.00000000     333.33333333
  1 36 15  1 30 30  1     250.00000000      83.33333333     166.66666667      90.00000000     372.67799625
  1 36 16  1 30 31  1     250.00000000      83.33333333     166.66666667      90.00000000     372.67799625
  1 36 16  1 30 32  1     250.00000000      83.33333333     166.66666667      90.00000000     333.33333333
  1 36 16  1 30 33  1     250.00000000      83.33333333     166.66666667      90.00000000     372.67799625
  1 36 17  1 30 34  1     250.00000000      83.33333333     166.66666667      90.00000000     372.67799625
  1 36 17  1 30 35  1     250.00000000      83.33333333     166.66666667      90.00000000     333.33333333
  1 36 17  1 30 36  1     250.00000000      83.33333333     166.66666667      90.00000000     372.67799625
  1 36 18  1 30 37  1     250.00000000      83.33333333     166.66666667      90.00000000     372.67799625
  1 36 18  1 30 38  1     250.00000000      83.33333333     166.66666667      90.00000000     333.33333333
  1 36 18  1 30 39  1     250.00000000      83.33333333     166.66666667      90.00000000     372.67799625
  1 36 19  1 30 40  1     250.00000000      83.33333333     166.66666667      90.00000000     372.67799625
  1 36 19  1 30 41  1     250.00000000      83.33333333     166.66666667      90.00000000     333.33333333
  1 35 20  1 30 42  1     250.00000000      83.33333333     166.66666667     180.00000000     372.67799625
  1 36 19  1 30 42  1     250.00000000      83.33333333     166.66666667      90.00000000     372.67799625
  2 31 5  2 16 1  1     250.00000000      83.33333333     166.66666667       0.00000000     372.67799625
  2 31 20  2 16 42  1     250.00000000      83.33333333     166.66666667     180.00000000     372.67799625
  2 31 5  2 17 1  1     250.00000000      83.33333333     166.66666667       0.00000000     333.33333333
  2 31 20  2 17 42  1     250.00000000      83.33333333     166.66666667     180.00000000     333.33333333
  2 31 5  2 18 1  1     250.00000000      83.33333333     166.66666667       0.00000000     372.67799625
  2 31 20  2 18 42  1     250.00000000      83.33333333     166.66666667     180.00000000     372.67799625
  2 32 5  2 19 1  1     250.00000000      83.33333333     166.66666667       0.00000000     372.67799625
  2 32 20  2 19 42  1     250.00000000      83.33333333     166.66666667     180.00000000     372.67799625
  2 32 5  2 20 1  1     250.00000000      83.33333333     166.66666667       0.00000000     333.33333333
  2 32 20  2 20 42  1     250.00000000      83.33333333     166.66666667     180.00000000     333.33333333
  2 32 5  2 21 1  1     250.00000000      83.33333333     166.66666667       0.00000000     372.67799625
  2 32 20  2 21 42  1     250.00000000      83.33333333     166.66666667     180.00000000     372.67799625
  2 33 5  2 22 1  1     250.00000000      83.33333333     166.66666667       0.00000000     372.67799625
  2 33 20  2 22 42  1     250.00000000      83.33333333     166.66666667     180.00000000     372.67799625
  2 33 5  2 23 1  1     250.00000000      83.33333333     166.66666667       0.00000000     333.33333333
  2 33 20  2 23 42  1     250.00000000      83.33333333     166.66666667     180.00000000     333.33333333
  2 33 5  2 24 1  1     250.00000000      83.33333333     166.66666667       0.00000000     372.67799625
  2 33 20  2 24 42  1     250.00000000      83.33333333     166.66666667     180.00000000     372.67799625
  2 34 5  2 25 1  1     250.00000000      83.33333333     166.66666667       0.00000000     372.67799625
  2 34 20  2 25 42  1     250.00000000      83.33333333     166.66666667     180.00000000     372.67799625
  2 34 5  2 26 1  1     250.00000000      83.33333333     166.66666667       0.00000000     333.33333333
  2 34 20  2 26 42  1     250.00000000      83.33333333     166.66666667     180.00000000     333.33333333
  2 34 5  2 27 1  1     250.00000000      83.33333333     166.66666667       0.00000000     372.67799625
  2 34 20  2 27 42  1     250.00000000      83.33333333     166.66666667     180.00000000     372.67799625
  2 35 5  2 28 1  1     250.00000000      83.33333333     166.66666667       0.00000000     372.67799625
  2 35 20  2 28 42  1     250.00000000      83.33333333     166.66666667     180.00000000     372.67799625
  2 35 5  2 29 1  1     250.00000000      83.33333333     166.66666667       0.00000000     333.33333333
  2 35 20  2 29 42  1     250.00000000      83.33333333     166.66666667     180.00000000     333.33333333
  2 35 5  2 30 1  1     250.00000000      83.33333333     166.66666667       0.00000000     372.67799625
  2 36 6  2 30 1  1     250.00000000      83.33333333     166.66666667      90.00000000     372.67799625
  2 36 6  2 30 2  1     250.00000000      83.33333333     166.66666667      90.00000000     333.33333333
  2 36 6  2 30 3  1     250.00000000      83.33333333     166.66666667      90.00000000     372.67799625
  2 36 7  2 30 4  1     250.00000000      83.33333333     166.66666667      90.00000000     372.67799625
  2 36 7  2 30 5  1     250.00000000      83.33333333     166.66666667      90.00000000     333.33333333
  2 36 7  2 30 6  1     250.00000000      83.33333333     166.66666667      90.00000000     372.67799625
  2 36 8  2 30 7  1     250.00000000      83.33333333     166.66666667      90.00000000     372.67799625
  2 36 8  2 30 8  1     250.00000000      83.33333333     166.66666667      90.00000000     333.33333333
  2 36 8  2 30 9  1     250.00000000      83.33333333     166.66666667      90.00000000     372.67799625
  2 36 9  2 30 10  1     250.00000000      83.33333333     166.66666667      90.00000000     372.67799625
  2 36 9  2 30 11  1     250.00000000      83.33333333     166.66666667      90.00000000     333.33333333
  2 36 9  2 30 12  1     250.00000000      83.33333333     166.66666667      90.00000000     372.67799625
  2 36 10  2 30 13  1     250.00000000      83.33333333     166.66666667      90.00000000     372.67799625
  2 36 10  2 30 14  1     250.00000000      83.33333333     166.66666667      90.00000000     333.33333333
  2 36 10  2 30 15  1     250.00000000      83.33333333     166.66666667      90.00000000     372.67799625
  2 36 11  2 30 16  1     250.00000000      83.33333333     166.66666667      90.00000000     372.67799625
  2 36 11  2 30 17  1     250.00000000      83.33333333     166.66666667      90.00000000     333.33333333
  2 36 11  2 30 18  1     250.00000000      83.33333333     166.66666667      90.00000000     372.67799625
  2 36 12  2 30 19  1     250.00000000      83.33333333     166.66666667      90.00000000     372.67799625
  2 36 12  2 30 20  1     250.00000000      83.33333333     166.66666667      90.00000000     333.33333333
  2 36 12  2 30 21  1     250.00000000      83.33333333     166.66666667      90.00000000     372.67799625
  2 36 13  2 30 22  1     250.00000000      83.33333333     166.66666667      90.00000000     372.67799625
  2 36 13  2 30 23  1     250.00000000      83.33333333     166.66666667      90.00000000     333.33333333
  2 36 13  2 30 24  1     250.00000000      83.33333333     166.66666667      90.00000000     372.67799625
  2 36 14  2 30 25  1     250.00000000      83.33333333     166.66666667      90.00000000     372.67799625
  2 36 14  2 30 26  1     250.00000000      83.33333333     166.66666667      90.00000000     333.33333333
  2 36 14  2 30 27  1     250.00000000      83.33333333     166.66666667      90.00000000     372.67799625
  2 36 15  2 30 28  1     250.00000000      83.33333333     166.66666667      90.00000000     372.67799625
  2 36 15  2 30 29  1     250.00000000      83.33333333     166.66666667      90.00000000     333.33333333
  2 36 15  2 30 30  1     250.00000000      83.33333333     166.66666667      90.00000000     372.67799625
  2 36 16  2 30 31  1     250.00000000      83.33333333     166.66666667      90.00000000     372.67799625
  2 36 16  2 30 32  1     250.00000000      83.33333333     166.66666667      90.00000000     333.33333333
  2 36 16  2 30 33  1     250.00000000      83.33333333     166.66666667      90.00000000     372.67799625
  2 36 17  2 30 34  1     250.00000000      83.33333333     166.66666667      90.00000000     372.67799625
  2 36 17  2 30 35  1     250.00000000      83.33333333     166.66666667      90.00000000     333.33333333
  2 36 17  2 30 36  1     250.00000000      83.33333333     166.66666667      90.00000000     372.67799625
  2 36 18  2 30 37  1     250.00000000      83.33333333     166.66666667      90.00000000     372.67799625
  2 36 18  2 30 38  1     250.00000000      83.33333333     166.66666667      90.00000000     333.33333333
  2 36 18  2 30 39  1     250.00000000      83.33333333     166.66666667      90.00000000     372.67799625
  2 36 19  2 30 40  1     250.00000000      83.33333333     166.66666667      90.00000000     372.67799625
  2 36 19  2 30 41  1     250.00000000      83.33333333     166.66666667      90.00000000     333.33333333
  2 35 20  2 30 42  1     250.00000000      83.33333333     166.66666667     180.00000000     372.67799625
  2 36 19  2 30 42  1     250.00000000      83.33333333     166.66666667      90.00000000     372.67799625
  3 31 5  3 16 1  1     250.00000000      83.33333333     166.66666667       0.00000000     372.67799625
  3 31 20  3 16 42  1     250.00000000      83.33333333     166.66666667     180.00000000     372.67799625
  3 31 5  3 17 1  1     250.00000000      83.33333333     166.66666667       0.00000000     333.33333333
  3 31 20  3 17 42  1     250.00000000      83.33333333     166.66666667     180.00000000     333.33333333
  3 31 5  3 18 1  1     250.00000000      83.33333333     166.66666667       0.00000000     372.67799625
  3 31 20  3 18 42  1     250.00000000      83.33333333     166.66666667     180.00000000     372.67799625
  3 32 5  3 19 1  1     250.00000000      83.33333333     166.66666667       0.00000000     372.67799625
  3 32 20  3 19 42  1     250.00000000      83.33333333     166.66666667     180.00000000     372.67799625
  3 32 5  3 20 1  1     250.00000000      83.33333333     166.66666667       0.00000000     333.33333333
  3 32 20  3 20 42  1     250.00000000      83.33333333     166.66666667     180.00000000     333.33333333
  3 32 5  3 21 1  1     250.00000000      83.33333333     166.66666667       0.00000000     372.67799625
  3 32 20  3 21 42  1     250.00000000      83.33333333     166.66666667     180.00000000     372.67799625
  3 33 5  3 22 1  1     250.00000000      83.33333333     166.66666667       0.00000000     372.67799625
  3 33 20  3 22 42  1     250.00000000      83.33333333     166.66666667     180.00000000     372.67799625
  3 33 5  3 23 1  1     250.00000000      83.33333333     166.66666667       0.00000000     333.33333333
  3 33 20  3 23 42  1     250.00000000      83.33333333     166.66666667     180.00000000     333.33333333
  3 33 5  3 24 1  1     250.00000000      83.33333333     166.66666667       0.00000000     372.67799625
  3 33 20  3 24 42  1     250.00000000      83.33333333     166.66666667     180.00000000     372.67799625
  3 34 5  3 25 1  1     250.00000000      83.33333333     166.66666667       0.00000000     372.67799625
  3 34 20  3 25 42  1     250.00000000      83.33333333     166.66666667     180.00000000     372.67799625
  3 34 5  3 26 1  1     250.00000000      83.33333333     166.66666667       0.00000000     333.33333333
  3 34 20  3 26 42  1     250.00000000      83.33333333     166.66666667     180.00000000     333.33333333
  3 34 5  3 27 1  1     250.00000000      83.33333333     166.66666667       0.00000000     372.67799625
  3 34 20  3 27 42  1     250.00000000      83.33333333     166.66666667     180.00000000     372.67799625
  3 35 5  3 28 1  1     250.00000000      83.33333333     166.66666667       0.00000000     372.67799625
  3 35 20  3 28 42  1     250.00000000      83.33333333     166.66666667     180.00000000     372.67799625
  3 35 5  3 29 1  1     250.00000000      83.33333333     166.66666667       0.00000000     333.33333333
  3 35 20  3 29 42  1     250.00000000      83.33333333     166.66666667     180.00000000     333.33333333
  3 35 5  3 30 1  1     250.00000000      83.33333333     166.66666667       0.00000000     372.67799625
  3 36 6  3 30 1  1     250.00000000      83.33333333     166.66666667      90.00000000     372.67799625
  3 36 6  3 30 2  1     250.00000000      83.33333333     166.66666667      90.00000000     333.33333333
  3 36 6  3 30 3  1     250.00000000      83.33333333     166.66666667      90.00000000     372.67799625
  3 36 7  3 30 4  1     250.00000000      83.33333333     166.66666667      90.00000000     372.67799625
  3 36 7  3 30 5  1     250.00000000      83.33333333     166.66666667      90.00000000     333.33333333
  3 36 7  3 30 6  1     250.00000000      83.33333333     166.66666667      90.00000000     372.67799625
  3 36 8  3 30 7  1     250.00000000      83.33333333     166.66666667      90.00000000     372.67799625
  3 36 8  3 30 8  1     250.00000000      83.33333333     166.66666667      90.00000000     333.33333333
  3 36 8  3 30 9  1     250.00000000      83.33333333     166.66666667      90.00000000     372.67799625
  3 36 9  3 30 10  1     250.00000000      83.33333333     166.66666667      90.00000000     372.67799625
  3 36 9  3 30 11  1     250.00000000      83.33333333     166.66666667      90.00000000     333.33333333
  3 36 9  3 30 12  1     250.00000000      83.33333333     166.66666667      90.00000000     372.67799625
  3 36 10  3 30 13  1     250.00000000      83.33333333     166.66666667      90.00000000     372.67799625
  3 36 10  3 30 14  1     250.00000000      83.33333333     166.66666667      90.00000000     333.33333333
  3 36 10  3 30 15  1     250.00000000      83.33333333     166.66666667      90.00000000     372.67799625
  3 36 11  3 30 16  1     250.00000000      83.33333333     166.66666667      90.00000000     372.67799625
  3 36 11  3 30 17  1     250.00000000      83.33333333     166.66666667      90.00000000     333.33333333
  3 36 11  3 30 18  1     250.00000000      83.33333333     166.66666667      90.00000000     372.67799625
  3 36 12  3 30 19  1     250.00000000      83.33333333     166.66666667      90.00000000     372.67799625
  3 36 12  3 30 20  1     250.00000000      83.33333333     166.66666667      90.00000000     333.33333333
  3 36 12  3 30 21  1     250.00000000      83.33333333     166.66666667      90.00000000     372.67799625
  3 36 13  3 30 22  1     250.00000000      83.33333333     166.66666667      90.00000000     372.67799625
  3 36 13  3 30 23  1     250.00000000      83.33333333     166.66666667      90.00000000     333.33333333
  3 36 13  3 30 24  1     250.00000000      83.33333333     166.66666667      90.00000000     372.67799625
  3 36 14  3 30 25  1     250.00000000      83.33333333     166.66666667      90.00000000     372.67799625
  3 36 14  3 30 26  1     250.00000000      83.33333333     166.66666667      90.00000000     333.33333333
  3 36 14  3 30 27  1     250.00000000      83.33333333     166.66666667      90.00000000     372.67799625
  3 36 15  3 30 28  1     250.00000000      83.33333333     166.66666667      90.00000000     372.67799625
  3 36 15  3 30 29  1     250.00000000      83.33333333     166.66666667      90.00000000     333.33333333
  3 36 15  3 30 30  1     250.00000000      83.33333333     166.66666667      90.00000000     372.67799625
  3 36 16  3 30 31  1     250.00000000      83.33333333     166.66666667      90.00000000     372.67799625
  3 36 16  3 30 32  1     250.00000000      83.33333333     166.66666667      90.00000000     333.33333333
  3 36 16  3 30 33  1     250.00000000      83.33333333     166.66666667      90.00000000     372.67799625
  3 36 17  3 30 34  1     250.00000000      83.33333333     166.66666667      90.00000000     372.67799625
  3 36 17  3 30 35  1     250.00000000      83.33333333     166.66666667      90.00000000     333.33333333
  3 36 17  3 30 36  1     250.00000000      83.33333333     166.66666667      90.00000000     372.67799625
  3 36 18  3 30 37  1     250.00000000      83.33333333     166.66666667      90.00000000     372.67799625
  3 36 18  3 30 38  1     250.00000000      83.33333333     166.66666667      90.00000000     333.33333333
  3 36 18  3 30 39  1     250.00000000      83.33333333     166.66666667      90.00000000     372.67799625
  3 36 19  3 30 40  1     250.00000000      83.33333333     166.66666667      90.00000000     372.67799625
  3 36 19  3 30 41  1     250.00000000      83.33333333     166.66666667      90.00000000     333.33333333
  3 35 20  3 30 42  1     250.00000000      83.33333333     166.66666667     180.00000000     372.67799625
  3 36 19  3 30 42  1     250.00000000      83.33333333     166.66666667      90.00000000     372.67799625
  4 31 5  4 16 1  1     250.00000000      83.33333333     166.66666667       0.00000000     372.67799625
  4 31 20  4 16 42  1     250.00000000      83.33333333     166.66666667     180.00000000     372.67799625
  4 31 5  4 17 1  1     250.00000000      83.33333333     166.66666667       0.00000000     333.33333333
  4 31 20  4 17 42  1     250.00000000      83.33333333     166.66666667     180.00000000     333.33333333
  4 31 5  4 18 1  1     250.00000000      83.33333333     166.66666667       0.00000000     372.67799625
  4 31 20  4 18 42  1     250.00000000      83.33333333     166.66666667     180.00000000     372.67799625
  4 32 5  4 19 1  1     250.00000000      83.33333333     166.66666667       0.00000000     372.67799625
  4 32 20  4 19 42  1     250.00000000      83.33333333     166.66666667     180.00000000     372.67799625
  4 32 5  4 20 1  1     250.00000000      83.33333333     166.66666667       0.00000000     333.33333333
  4 32 20  4 20 42  1     250.00000000      83.33333333     166.66666667     180.00000000     333.33333333
  4 32 5  4 21 1  1     250.00000000      83.33333333     166.66666667       0.00000000     372.67799625
  4 32 20  4 21 42  1     250.00000000      83.33333333     166.66666667     180.00000000     372.67799625
  4 33 5  4 22 1  1     250.00000000      83.33333333     166.66666667       0.00000000     372.67799625
  4 33 20  4 22 42  1     250.00000000      83.33333333     166.66666667     180.00000000     372.67799625
  4 33 5  4 23 1  1     250.00000000      83.33333333     166.66666667       0.00000000     333.33333333
  4 33 20  4 23 42  1     250.00000000      83.33333333     166.66666667     180.00000000     333.33333333
  4 33 5  4 24 1  1     250.00000000      83.33333333     166.66666667       0.00000000     372.67799625
  4 33 20  4 24 42  1     250.00000000      83.33333333     166.66666667     180.00000000     372.67799625
  4 34 5  4 25 1  1     250.00000000      83.33333333     166.66666667       0.00000000     372.67799625
  4 34 20  4 25 42  1     250.00000000      83.33333333     166.66666667     180.00000000     372.67799625
  4 34 5  4 26 1  1     250.00000000      83.33333333     166.66666667       0.00000000     333.33333333
  4 34 20  4 26 42  1     250.00000000      83.33333333     166.66666667     180.00000000     333.33333333
  4 34 5  4 27 1  1     250.00000000      83.33333333     166.66666667       0.00000000     372.67799625
  4 34 20  4 27 42  1     250.00000000      83.33333333     166.66666667     180.00000000     372.67799625
  4 35 5  4 28 1  1     250.00000000      83.33333333     166.66666667       0.00000000     372.67799625
  4 35 20  4 28 42  1     250.00000000      83.33333333     166.66666667     180.00000000     372.67799625
  4 35 5  4 29 1  1     250.00000000      83.33333333     166.66666667       0.00000000     333.33333333
  4 35 20  4 29 42  1     250.00000000      83.33333333     166.66666667     180.00000000     333.33333333
  4 35 5  4 30 1  1     250.00000000      83.33333333     166.66666667       0.00000000     372.67799625
  4 36 6  4 30 1  1     250.00000000      83.33333333     166.66666667      90.00000000     372.67799625
  4 36 6  4 30 2  1     250.00000000      83.33333333     166.66666667      90.00000000     333.33333333
  4 36 6  4 30 3  1     250.00000000      83.33333333     166.66666667      90.00000000     372.67799625
  4 36 7  4 30 4  1     250.00000000      83.33333333     166.66666667      90.00000000     372.67799625
  4 36 7  4 30 5  1     250.00000000      83.33333333     166.66666667      90.00000000     333.33333333
  4 36 7  4 30 6  1     250.00000000      83.33333333     166.66666667      90.00000000     372.67799625
  4 36 8  4 30 7  1     250.00000000      83.33333333     166.66666667      90.00000000     372.67799625
  4 36 8  4 30 8  1     250.00000000      83.33333333     166.66666667      90.00000000     333.33333333
  4 36 8  4 30 9  1     250.00000000      83.33333333     166.66666667      90.00000000     372.67799625
  4 36 9  4 30 10  1     250.00000000      83.33333333     166.66666667      90.00000000     372.67799625
  4 36 9  4 30 11  1     250.00000000      83.33333333     166.66666667      90.00000000     333.33333333
  4 36 9  4 30 12  1     250.00000000      83.33333333     166.66666667      90.00000000     372.67799625
  4 36 10  4 30 13  1     250.00000000      83.33333333     166.66666667      90.00000000     372.67799625
  4 36 10  4 30 14  1     250.00000000      83.33333333     166.66666667      90.00000000     333.33333333
  4 36 10  4 30 15  1     250.00000000      83.33333333     166.66666667      90.00000000     372.67799625
  4 36 11  4 30 16  1     250.00000000      83.33333333     166.66666667      90.00000000     372.67799625
  4 36 11  4 30 17  1     250.00000000      83.33333333     166.66666667      90.00000000     333.33333333
  4 36 11  4 30 18  1     250.00000000      83.33333333     166.66666667      90.00000000     372.67799625
  4 36 12  4 30 19  1     250.00000000      83.33333333     166.66666667      90.00000000     372.67799625
  4 36 12  4 30 20  1     250.00000000      83.33333333     166.66666667      90.00000000     333.33333333
  4 36 12  4 30 21  1     250.00000000      83.33333333     166.66666667      90.00000000     372.67799625
  4 36 13  4 30 22  1     250.00000000      83.33333333     166.66666667      90.00000000     372.67799625
  4 36 13  4 30 23  1     250.00000000      83.33333333     166.66666667      90.00000000     333.33333333
  4 36 13  4 30 24  1     250.00000000      83.33333333     166.66666667      90.00000000     372.67799625
  4 36 14  4 30 25  1     250.00000000      83.33333333     166.66666667      90.00000000     372.67799625
  4 36 14  4 30 26  1     250.00000000      83.33333333     166.66666667      90.00000000     333.33333333
  4 36 14  4 30 27  1     250.00000000      83.33333333     166.66666667      90.00000000     372.67799625
  4 36 15  4 30 28  1     250.00000000      83.33333333     166.66666667      90.00000000     372.67799625
  4 36 15  4 30 29  1     250.00000000      83.33333333     166.66666667      90.00000000     333.33333333
  4 36 15  4 30 30  1     250.00000000      83.33333333     166.66666667      90.00000000     372.67799625
  4 36 16  4 30 31  1     250.00000000      83.33333333     166.66666667      90.00000000     372.67799625
  4 36 16  4 30 32  1     250.00000000      83.33333333     166.66666667      90.00000000     333.33333333
  4 36 16  4 30 33  1     250.00000000      83.33333333     166.66666667      90.00000000     372.67799625
  4 36 17  4 30 34  1     250.00000000      83.33333333     166.66666667      90.00000000     372.67799625
  4 36 17  4 30 35  1     250.00000000      83.33333333     166.66666667      90.00000000     333.33333333
  4 36 17  4 30 36  1     250.00000000      83.33333333     166.66666667      90.00000000     372.67799625