#Valley aquifer with 2 sand layers separated by silt.  Stress period 1 is natur
# conditions.  Stress period 2 adds wells.
begin options
end options

BEGIN GRIDDATA
  strt LAYERED
CONSTANT    600.     #strt Layer 1                  
CONSTANT    600.     #strt Layer 2                  
CONSTANT    600.     #strt Layer 3                  
CONSTANT    600.     #strt Layer 4                  
CONSTANT    600.     #strt Layer 5                  
CONSTANT    600.     #strt Layer 6                  
CONSTANT    600.     #strt Layer 7                  
CONSTANT    600.     #strt Layer 8                  
CONSTANT    600.     #strt Layer 9                  
CONSTANT    600.     #strt Layer 10                 
    END GRIDDATA
