BEGIN OPTIONS
  READASARRAYS
  FIXED_CELL
  AUXILIARY MYRCHMULT
#  AUXMULTNAME MYRCHMULT
END OPTIONS

BEGIN PERIOD 1
  RECHARGE
    CONSTANT 0.01
  MYRCHMULT
    CONSTANT 2.
END PERIOD
