# Name file for MODFLOW-2000, generated by Flopy.
LIST	  2	mf2005_C.list
DIS	 11	mf2005_C.dis
BAS6	 13	mf2005_C.bas
LPF	 15	mf2005_C.lpf
CHD  16 mf2005_C.chd
WEL	 20	mf2005_C.wel
OC	 14	mf2005_C.oc
PCG	 27	mf2005_C.pcg
DATA(BINARY)	 50	mf2005_C.cbc replace
DATA(BINARY)	 51	mf2005_C.hds replace
