# Basic package file for MODFLOW-2000, generated by Flopy.
 FREE
 constant          1 IBOUND Array for Layer
-999.990000
 constant        40.  Starting Heads in Layer
