begin options
  PRINT_FLOWS
  SAVE_FLOWS
#  VFC  (turn on vertical flow correction).  Default is off?
#  CONSTANTCV (default is off)
#  CVCORRECTION (default is off)
end options
#
BEGIN GRIDDATA
    #icelltype(nodes) is 0:confined, 1:convertible, 4:upstream?
    icelltype
        constant 0
    #	
    K
        constant 1.0  k Layer 1
    K33
        constant 1.0  K33 Layer 1
END GRIDDATA