# IC6 input file, prepared by MF5to6 on 6/5/2017 at 16:11:43.

BEGIN Options
END Options

BEGIN GRIDDATA
  STRT LAYERED
    INTERNAL  FACTOR    1.000000      IPRN  0
   1092.900       1089.400       6999.000       6999.000       6999.000       6999.000       6999.000       6999.000       6999.000       6999.000    
   1089.900       1086.700       1081.400       6999.000       6999.000       1072.300       1071.500       1071.100       6999.000       6999.000    
   6999.000       1079.400       1077.500       1073.600       1072.500       1070.600       1069.100       1068.300       6999.000       6999.000    
   1069.100       1070.700       1070.200       1067.000       1065.500       1063.600       1063.900       1065.900       1066.100       6999.000    
   1064.900       1063.900       1062.900       1061.500       1060.800       1060.800       1060.200       1062.000       1065.700       1068.100    
   1059.800       1058.300       1057.200       1056.400       1056.300       1056.900       1057.200       1059.100       1061.900       1065.600    
   1056.100       1053.000       1051.700       1051.200       1051.300       1051.900       1053.200       1055.500       1056.500       6999.000    
   6999.000       1046.300       1045.700       1045.500       1045.800       1046.500       1047.800       1049.900       1050.400       6999.000    
   6999.000       1039.100       1039.100       1039.500       1040.000       1041.000       1041.600       1042.900       1044.000       6999.000    
   6999.000       1031.100       1031.800       1033.300       1034.300       1035.400       1036.500       1037.600       1039.300       1041.600    
   6999.000       1021.400       1023.100       1026.800       1028.700       1030.500       1032.100       1033.600       1035.700       6999.000    
   1001.200       1009.200       1014.500       1019.600       1023.100       1026.200       1028.600       1030.400       1034.300       6999.000    
   994.5000       1000.000       1006.700       1012.900       1018.700       1024.300       1029.100       1034.100       1036.100       6999.000    
   6999.000       1004.000       1009.000       1013.700       1018.900       1024.000       1029.500       1035.100       1039.300       6999.000    
   6999.000       6999.000       1011.900       1015.100       1019.100       1022.400       6999.000       6999.000       6999.000       6999.000    
END GRIDDATA
