# RCH6 input file, prepared by MF5to6 on 6/5/2017 at 16:11:43.

BEGIN Options
  READASARRAYS
  FIXED_CELL
END Options

BEGIN PERIOD 1
  RECHARGE
    INTERNAL  FACTOR  1.0  IPRN   12
 0.2500000E-09  0.1000000E-08   0.000000       0.000000       0.000000       0.000000
  0.000000       0.000000       0.000000       0.000000
 0.1000000E-08  0.2500000E-09  0.1000000E-08   0.000000       0.000000      0.4000000E-08
 0.4000000E-08  0.4000000E-08   0.000000       0.000000
  0.000000      0.1000000E-08  0.2500000E-09  0.1000000E-08  0.1000000E-08  0.2500000E-09
 0.2500000E-09  0.2500000E-09   0.000000       0.000000
 0.4000000E-08  0.2500000E-09  0.2500000E-09  0.2500000E-09  0.2500000E-09  0.2500000E-09
 0.2500000E-09  0.2500000E-09  0.1000000E-08   0.000000
 0.4000000E-08  0.2500000E-09  0.2500000E-09  0.2500000E-09  0.2500000E-09  0.2500000E-09
 0.2500000E-09  0.2500000E-09  0.2500000E-09  0.2500000E-09
 0.1000000E-08  0.2500000E-09  0.2500000E-09  0.2500000E-09  0.2500000E-09  0.2500000E-09
 0.2500000E-09  0.2500000E-09  0.2500000E-09  0.1000000E-08
 0.1000000E-08  0.2500000E-09  0.2500000E-09  0.2500000E-09  0.2500000E-09  0.2500000E-09
 0.2500000E-09  0.2500000E-09  0.1000000E-08   0.000000
  0.000000      0.1000000E-08  0.2500000E-09  0.2500000E-09  0.2500000E-09  0.2500000E-09
 0.2500000E-09  0.2500000E-09  0.1000000E-08   0.000000
  0.000000      0.1000000E-08  0.2500000E-09  0.2500000E-09  0.2500000E-09  0.2500000E-09
 0.2500000E-09  0.2500000E-09  0.1000000E-08   0.000000
  0.000000      0.1000000E-08  0.2500000E-09  0.2500000E-09  0.2500000E-09  0.2500000E-09
 0.2500000E-09  0.2500000E-09  0.2500000E-09  0.4000000E-08
  0.000000      0.1000000E-08  0.2500000E-09  0.2500000E-09  0.2500000E-09  0.2500000E-09
 0.2500000E-09  0.2500000E-09  0.1000000E-08   0.000000
 0.1000000E-08  0.2500000E-09  0.2500000E-09  0.2500000E-09  0.2500000E-09  0.2500000E-09
 0.2500000E-09  0.2500000E-09  0.1000000E-08   0.000000
 0.2500000E-09  0.2500000E-09  0.2500000E-09  0.2500000E-09  0.2500000E-09  0.2500000E-09
 0.2500000E-09  0.2500000E-09  0.1000000E-08   0.000000
  0.000000      0.2500000E-09  0.2500000E-09  0.2500000E-09  0.2500000E-09  0.2500000E-09
 0.1000000E-08  0.1000000E-08  0.2500000E-09   0.000000
  0.000000       0.000000      0.1000000E-08  0.1000000E-08  0.1000000E-08  0.1000000E-08
  0.000000       0.000000       0.000000       0.000000
END PERIOD
