# TDIS6 input file, prepared by MF5to6 on 6/5/2017 at 16:11:43.

BEGIN Options
  TIME_UNITS SECONDS
END Options

BEGIN Dimensions
  NPER 2
END Dimensions

BEGIN PERIODDATA
   0.15778800E+10          50    1.1000000      Items: PERLEN NSTP TSMULT
   0.15778800E+10          50    1.1000000      Items: PERLEN NSTP TSMULT
END PERIODDATA
