# STO6 input file, prepared by MF5to6 on 6/5/2017 at 16:11:43.

BEGIN Options
  DEV_OLDSTORAGEFORMULATION
END Options

BEGIN GRIDDATA
  ICONVERT LAYERED
    CONSTANT  1
  SS LAYERED
    CONSTANT   0.10000000E-05
  SY LAYERED
    INTERNAL  FACTOR    1.000000      IPRN  12
  0.2000000      0.2000000       0.000000       0.000000       0.000000       0.000000       0.000000       0.000000       0.000000       0.000000    
  0.1000000      0.2000000      0.2000000       0.000000       0.000000      0.1000000      0.1000000      0.1000000       0.000000       0.000000    
   0.000000      0.1000000      0.2000000      0.2000000      0.1000000      0.1000000      0.1000000      0.1000000       0.000000       0.000000    
  0.1000000      0.1000000      0.1000000      0.2000000      0.2000000      0.2000000      0.1000000      0.1000000      0.1000000       0.000000    
  0.1000000      0.1000000      0.1000000      0.2000000      0.2000000      0.2000000      0.2000000      0.2000000      0.2000000      0.2000000    
  0.1000000      0.1000000      0.1000000      0.2000000      0.2000000      0.2000000      0.2000000      0.2000000      0.1000000      0.1000000    
  0.1000000      0.1000000      0.1000000      0.2000000      0.2000000      0.2000000      0.2000000      0.2000000      0.1000000       0.000000    
   0.000000      0.1000000      0.1000000      0.2000000      0.2000000      0.2000000      0.2000000      0.1000000      0.1000000       0.000000    
   0.000000      0.1000000      0.1000000      0.2000000      0.2000000      0.2000000      0.2000000      0.1000000      0.1000000       0.000000    
   0.000000      0.1000000      0.1000000      0.2000000      0.2000000      0.2000000      0.2000000      0.1000000      0.1000000      0.1000000    
   0.000000      0.1000000      0.1000000      0.2000000      0.2000000      0.2000000      0.2000000      0.1000000      0.1000000       0.000000    
  0.1000000      0.1000000      0.2000000      0.2000000      0.2000000      0.2000000      0.2000000      0.1000000      0.1000000       0.000000    
  0.2000000      0.2000000      0.2000000      0.2000000      0.2000000      0.2000000      0.2000000      0.2000000      0.2000000       0.000000    
   0.000000      0.1000000      0.1000000      0.1000000      0.1000000      0.1000000      0.1000000      0.1000000      0.2000000       0.000000    
   0.000000       0.000000      0.1000000      0.1000000      0.1000000      0.1000000       0.000000       0.000000       0.000000       0.000000    
END GRIDDATA
