# ims6 input file, prepared by mf5to6 on 6/5/2017 at 16:11:43.

begin options
  print_option  summary
  complexity  simple
end options

begin nonlinear
	outer_dvclose 1.e-5
	outer_maximum 100 
  under_relaxation  none
  under_relaxation_theta    0.000000    
  under_relaxation_kappa    0.000000    
  under_relaxation_gamma    0.000000    
  under_relaxation_momentum    0.000000    
end nonlinear

begin linear
	inner_dvclose 1.0e-5
	inner_rclose 0.1
	inner_maximum 100
	linear_acceleration cg
	scaling_method none
	reordering_method none
	relaxation_factor .99
end linear
