# OC6 input file, prepared by MF5to6 on 6/5/2017 at 16:11:43.

BEGIN Options
  BUDGET FILEOUT  mf6.cbc
  HEAD FILEOUT  mf6.hds
  HEAD PRINT_FORMAT  COLUMNS 15  WIDTH 7  DIGITS 2  FIXED               
END Options

BEGIN PERIOD 1
    SAVE BUDGET  STEPS 1 5 10 13 15 20 25 30 33 35 40 45 50
    PRINT BUDGET  STEPS 1 5 10 13 15 20 25 30 33 35 40 45 50
    PRINT HEAD  STEPS 1 5 10 13 15 20 25 30 33 35 40 45 50
    SAVE HEAD  STEPS 1 5 10 13 15 20 25 30 33 35 40 45 50
END PERIOD

BEGIN PERIOD 2
    SAVE BUDGET  STEPS 1 5 10 13 15 20 25 30 33 35 40 45 46 47 48 49 50
    PRINT BUDGET  STEPS 1 5 10 13 15 20 25 30 33 35 40 42 45 46 47 48 49 50
    PRINT HEAD  STEPS 1 5 10 13 15 20 25 30 33 35 40 42 45 46 47 48 49 50
    SAVE HEAD  STEPS 1 5 10 13 15 20 25 30 33 35 40 42 45 46 47 48 49 50
END PERIOD
