# EVT6 input file, prepared by MF5to6 on 6/5/2017 at 16:11:43.

BEGIN Options
  READASARRAYS
  PRINT_INPUT
  SAVE_FLOWS
  FIXED_CELL
END Options

BEGIN PERIOD 1
  RATE
    CONSTANT   0.95000000E-07
  DEPTH
    CONSTANT    15.000000    
  SURFACE
    INTERNAL  FACTOR  1.0  IPRN   12
  1110.000       1110.000       0.000000       0.000000       0.000000       0.000000
  0.000000       0.000000       0.000000       0.000000
  1110.000       1105.000       1110.000       0.000000       0.000000       1100.000
  1100.000       1110.000       0.000000       0.000000
  0.000000       1100.000       1095.000       1088.000       1085.000       1085.000
  1085.000       1090.000       0.000000       0.000000
  1105.000       1100.000       1090.000       1083.000       1078.000       1075.000
  1080.000       1085.000       1100.000       0.000000
  1105.000       1090.000       1080.000       1077.000       1074.000       1073.000
  1074.000       1078.000       1080.000       1085.000
  1100.000       1080.000       1075.000       1072.000       1071.000       1069.000
  1070.000       1075.000       1080.000       1100.000
  1100.000       1080.000       1070.000       1065.000       1065.000       1065.000
  1065.000       1070.000       1090.000       0.000000
  0.000000       1075.000       1065.000       1059.000       1059.000       1058.000
  1063.000       1070.000       1090.000       0.000000
  0.000000       1065.000       1055.000       1053.000       1053.000       1052.000
  1055.000       1065.000       1090.000       0.000000
  0.000000       1060.000       1046.000       1046.000       1046.000       1046.000
  1044.000       1060.000       1088.000       1100.000
  0.000000       1045.000       1039.000       1040.000       1041.000       1042.000
  1040.000       1050.000       1075.000       0.000000
  1027.000       1028.000       1028.000       1032.000       1032.000       1033.000
  1032.000       1040.000       1060.000       0.000000
  997.0000       1004.000       1008.000       1014.000       1020.000       1027.000
  1032.000       1038.000       1050.000       0.000000
  0.000000       1030.000       1040.000       1045.000       1050.000       1050.000
  1050.000       1050.000       1044.000       0.000000
  0.000000       0.000000       1080.000       1080.000       1080.000       1080.000
  0.000000       0.000000       0.000000       0.000000
END PERIOD
