# Discretization file for MODFLOW, generated by Flopy.
        10         1         3         1         4         2
  0  0  0  0  0  0  0  0  0  0
CONSTANT    2.000000E+02                           #delr                          
CONSTANT    1.000000E+00                           #delc                          
CONSTANT    2.000000E+03                           #model_top                     
CONSTANT    1.800000E+03                           #botm Layer 1                  
CONSTANT    1.600000E+03                           #botm Layer 2                  
CONSTANT    1.400000E+03                           #botm Layer 3                  
CONSTANT    1.200000E+03                           #botm Layer 4                  
CONSTANT    1.000000E+03                           #botm Layer 5                  
CONSTANT    8.000000E+02                           #botm Layer 6                  
CONSTANT    6.000000E+02                           #botm Layer 7                  
CONSTANT    4.000000E+02                           #botm Layer 8                  
CONSTANT    2.000000E+02                           #botm Layer 9                  
CONSTANT    0.000000E+00                           #botm Layer 10                 
   3650.000000             1  1.000000  SS 
