# Basic package file for MODFLOW, generated by Flopy.
 FREE
INTERNAL               1    (3I10)  -1 #ibound Layer 1                
         1         1         1
INTERNAL               1    (3I10)  -1 #ibound Layer 2                
         1         1         1
INTERNAL               1    (3I10)  -1 #ibound Layer 3                
         1         1         1
INTERNAL               1    (3I10)  -1 #ibound Layer 4                
         1         1         1
INTERNAL               1    (3I10)  -1 #ibound Layer 5                
         1         1         1
INTERNAL               1    (3I10)  -1 #ibound Layer 6                
         1         1         1
INTERNAL               1    (3I10)  -1 #ibound Layer 7                
         1         1         1
INTERNAL               1    (3I10)  -1 #ibound Layer 8                
         1         1        -1
INTERNAL               1    (3I10)  -1 #ibound Layer 9                
         1         1        -1
INTERNAL               1    (3I10)  -1 #ibound Layer 10               
         1         1        -1
        -999.99
INTERNAL               1  (3G15.6)  -1 #strt Layer 1                  
   6.000000E+02   6.000000E+02   6.000000E+02
INTERNAL               1  (3G15.6)  -1 #strt Layer 2                  
   6.000000E+02   6.000000E+02   6.000000E+02
INTERNAL               1  (3G15.6)  -1 #strt Layer 3                  
   6.000000E+02   6.000000E+02   6.000000E+02
INTERNAL               1  (3G15.6)  -1 #strt Layer 4                  
   6.000000E+02   6.000000E+02   6.000000E+02
INTERNAL               1  (3G15.6)  -1 #strt Layer 5                  
   6.000000E+02   6.000000E+02   6.000000E+02
INTERNAL               1  (3G15.6)  -1 #strt Layer 6                  
   6.000000E+02   6.000000E+02   6.000000E+02
INTERNAL               1  (3G15.6)  -1 #strt Layer 7                  
   6.000000E+02   6.000000E+02   6.000000E+02
INTERNAL               1  (3G15.6)  -1 #strt Layer 8                  
   6.000000E+02   6.000000E+02   6.000000E+02
INTERNAL               1  (3G15.6)  -1 #strt Layer 9                  
   6.000000E+02   6.000000E+02   6.000000E+02
INTERNAL               1  (3G15.6)  -1 #strt Layer 10                 
   6.000000E+02   6.000000E+02   6.000000E+02
