# LPF for MODFLOW, generated by Flopy.
        53    -2E+03         0, CONSTANTCV 
         4         4         4         4         4         4         4         4         4         4
         0         0         0         0         0         0         0         0         0         0
         1         1         1         1         1         1         1         1         1         1
         0         0         0         0         0         0         0         0         0         0
         0         0         0         0         0         0         0         0         0         0
INTERNAL               1  (3G15.6)  -1 #hk Layer 1                    
   8.475839E-01   8.475839E-01   8.475839E-01
INTERNAL               1  (3G15.6)  -1 #vka Layer 1                   
   8.475839E-01   8.475839E-01   8.475839E-01
INTERNAL               1  (3G15.6)  -1 #hk Layer 2                    
   8.475839E-01   8.475839E-01   8.475839E-01
INTERNAL               1  (3G15.6)  -1 #vka Layer 2                   
   8.475839E-01   8.475839E-01   8.475839E-01
INTERNAL               1  (3G15.6)  -1 #hk Layer 3                    
   8.475839E-01   8.475839E-01   8.475839E-01
INTERNAL               1  (3G15.6)  -1 #vka Layer 3                   
   8.475839E-01   8.475839E-01   8.475839E-01
INTERNAL               1  (3G15.6)  -1 #hk Layer 4                    
   8.475839E-01   8.475839E-01   8.475839E-01
INTERNAL               1  (3G15.6)  -1 #vka Layer 4                   
   8.475839E-01   8.475839E-01   8.475839E-01
INTERNAL               1  (3G15.6)  -1 #hk Layer 5                    
   8.475839E-01   8.475840E-07   8.475840E-07
INTERNAL               1  (3G15.6)  -1 #vka Layer 5                   
   8.475839E-01   8.475840E-07   8.475840E-07
INTERNAL               1  (3G15.6)  -1 #hk Layer 6                    
   8.475839E-01   8.475839E-01   8.475839E-01
INTERNAL               1  (3G15.6)  -1 #vka Layer 6                   
   8.475839E-01   8.475839E-01   8.475839E-01
INTERNAL               1  (3G15.6)  -1 #hk Layer 7                    
   8.475839E-01   8.475839E-01   8.475839E-01
INTERNAL               1  (3G15.6)  -1 #vka Layer 7                   
   8.475839E-01   8.475839E-01   8.475839E-01
INTERNAL               1  (3G15.6)  -1 #hk Layer 8                    
   8.475839E-01   8.475839E-01   8.475839E-01
INTERNAL               1  (3G15.6)  -1 #vka Layer 8                   
   8.475839E-01   8.475839E-01   8.475839E-01
INTERNAL               1  (3G15.6)  -1 #hk Layer 9                    
   8.475839E-01   8.475839E-01   8.475839E-01
INTERNAL               1  (3G15.6)  -1 #vka Layer 9                   
   8.475839E-01   8.475839E-01   8.475839E-01
INTERNAL               1  (3G15.6)  -1 #hk Layer 10                   
   8.475839E-01   8.475839E-01   8.475839E-01
INTERNAL               1  (3G15.6)  -1 #vka Layer 10                  
   8.475839E-01   8.475839E-01   8.475839E-01
