BEGIN options
  XT3D
  SAVE_SPECIFIC_DISCHARGE
END options

BEGIN griddata
  icelltype  LAYERED
    CONSTANT  1
    CONSTANT  0
    CONSTANT  0
    CONSTANT  0
    CONSTANT  0
  k  LAYERED
    INTERNAL  FACTOR  1.0
         200.00000000     200.00000000     200.00000000     200.00000000     200.00000000     200.00000000     200.00000000     275.00000000     275.00000000     275.00000000     275.00000000     275.00000000     275.00000000     275.00000000     275.00000000     275.00000000     275.00000000     275.00000000     200.00000000     200.00000000
         200.00000000     200.00000000     200.00000000     200.00000000     200.00000000     200.00000000     200.00000000     200.00000000     200.00000000     200.00000000     275.00000000     275.00000000     275.00000000     275.00000000     275.00000000     275.00000000     275.00000000     275.00000000     275.00000000     275.00000000
         275.00000000     275.00000000     275.00000000     275.00000000     200.00000000     200.00000000     200.00000000     200.00000000     200.00000000     200.00000000     200.00000000     200.00000000     200.00000000     200.00000000     200.00000000     200.00000000     200.00000000     200.00000000     200.00000000     200.00000000
         200.00000000     200.00000000     200.00000000     200.00000000     200.00000000     200.00000000     200.00000000     200.00000000     200.00000000     200.00000000     200.00000000     200.00000000     200.00000000     200.00000000     200.00000000     200.00000000     200.00000000     200.00000000     200.00000000     200.00000000
         200.00000000     200.00000000     200.00000000     200.00000000     200.00000000     200.00000000     200.00000000     200.00000000     200.00000000     200.00000000     200.00000000     200.00000000     200.00000000     200.00000000     275.00000000     275.00000000     275.00000000     275.00000000     275.00000000     275.00000000
         275.00000000     275.00000000     275.00000000     275.00000000     275.00000000     275.00000000     275.00000000     275.00000000     275.00000000     275.00000000     275.00000000     275.00000000     275.00000000     275.00000000     275.00000000     275.00000000     275.00000000     275.00000000     275.00000000     275.00000000
         275.00000000     275.00000000     275.00000000     275.00000000     275.00000000     275.00000000     275.00000000     275.00000000     275.00000000     275.00000000     275.00000000     275.00000000     275.00000000     275.00000000     275.00000000     275.00000000     275.00000000     275.00000000     275.00000000     275.00000000
         275.00000000     275.00000000     275.00000000     275.00000000     275.00000000     275.00000000     275.00000000     275.00000000     275.00000000     200.00000000     200.00000000     200.00000000     200.00000000     200.00000000     200.00000000     200.00000000     200.00000000     200.00000000     200.00000000     200.00000000
         200.00000000     200.00000000     200.00000000     200.00000000     200.00000000     200.00000000     200.00000000     200.00000000     200.00000000     200.00000000     200.00000000     200.00000000     200.00000000     200.00000000     200.00000000     200.00000000     200.00000000     200.00000000     200.00000000     200.00000000
         200.00000000     200.00000000     200.00000000     200.00000000     200.00000000     200.00000000     200.00000000     200.00000000     200.00000000     200.00000000     200.00000000     200.00000000     200.00000000     200.00000000     200.00000000     200.00000000     200.00000000     200.00000000     200.00000000     200.00000000
         200.00000000     200.00000000     200.00000000     200.00000000     200.00000000     200.00000000     200.00000000     200.00000000     200.00000000     200.00000000     200.00000000     200.00000000     200.00000000     200.00000000     200.00000000     200.00000000     200.00000000     200.00000000     200.00000000     200.00000000
         200.00000000     200.00000000     200.00000000     200.00000000     200.00000000     200.00000000     200.00000000     200.00000000     200.00000000     200.00000000     200.00000000     200.00000000     200.00000000     200.00000000     200.00000000     200.00000000     200.00000000     200.00000000     200.00000000     200.00000000
         200.00000000     200.00000000     200.00000000     200.00000000     200.00000000     200.00000000     200.00000000     200.00000000     200.00000000     200.00000000     400.00000000     400.00000000     400.00000000     400.00000000     400.00000000     400.00000000     400.00000000     400.00000000     400.00000000     400.00000000
         400.00000000     400.00000000     400.00000000     400.00000000     400.00000000     400.00000000     400.00000000     400.00000000     400.00000000     400.00000000     400.00000000     400.00000000     400.00000000     400.00000000     400.00000000     400.00000000     400.00000000     400.00000000     400.00000000     400.00000000
         400.00000000     400.00000000     400.00000000     400.00000000     400.00000000     400.00000000     400.00000000     400.00000000     400.00000000     400.00000000     400.00000000     400.00000000     400.00000000     400.00000000     400.00000000     400.00000000     400.00000000     400.00000000     400.00000000     400.00000000
         400.00000000     400.00000000     400.00000000     400.00000000     400.00000000     400.00000000     400.00000000     400.00000000     400.00000000     400.00000000     400.00000000     400.00000000     400.00000000     400.00000000     400.00000000     400.00000000     400.00000000     400.00000000     400.00000000     400.00000000
         400.00000000     400.00000000     400.00000000     400.00000000     400.00000000     400.00000000     400.00000000     400.00000000     400.00000000     400.00000000     400.00000000     400.00000000     400.00000000     400.00000000     400.00000000     400.00000000     400.00000000     400.00000000     400.00000000     400.00000000
         400.00000000     400.00000000     400.00000000     400.00000000     400.00000000     400.00000000     400.00000000     400.00000000     400.00000000     400.00000000     400.00000000     400.00000000     400.00000000     400.00000000     400.00000000     400.00000000     400.00000000     400.00000000     400.00000000     400.00000000
         400.00000000     400.00000000     400.00000000     400.00000000     400.00000000     400.00000000     400.00000000     400.00000000     400.00000000     400.00000000     400.00000000     400.00000000     400.00000000     400.00000000     400.00000000     400.00000000     400.00000000     400.00000000     400.00000000     400.00000000
         400.00000000     400.00000000     400.00000000     400.00000000     400.00000000     400.00000000     400.00000000     400.00000000     400.00000000     400.00000000     400.00000000     400.00000000     400.00000000     400.00000000     400.00000000     400.00000000     400.00000000     400.00000000     400.00000000     400.00000000
         400.00000000     400.00000000     400.00000000     400.00000000     400.00000000     400.00000000     400.00000000     400.00000000     400.00000000     400.00000000     400.00000000     400.00000000     400.00000000     400.00000000     400.00000000     400.00000000     400.00000000     400.00000000     400.00000000     400.00000000
         400.00000000     400.00000000     400.00000000     400.00000000     400.00000000     400.00000000     400.00000000     400.00000000     400.00000000     400.00000000     400.00000000     400.00000000     400.00000000     400.00000000     400.00000000     400.00000000     400.00000000     400.00000000     400.00000000     400.00000000
         400.00000000     400.00000000     400.00000000     400.00000000     400.00000000     400.00000000     400.00000000     400.00000000     400.00000000     400.00000000     400.00000000     400.00000000     400.00000000     400.00000000     400.00000000     400.00000000     400.00000000     275.00000000     275.00000000     275.00000000
         275.00000000     275.00000000     275.00000000     275.00000000     275.00000000     275.00000000     275.00000000     275.00000000     275.00000000     275.00000000     275.00000000     275.00000000     275.00000000     275.00000000     275.00000000     275.00000000     275.00000000     275.00000000     275.00000000     275.00000000
         275.00000000     275.00000000     275.00000000     275.00000000     275.00000000     275.00000000     275.00000000     275.00000000     275.00000000     275.00000000     275.00000000     275.00000000     275.00000000     275.00000000     275.00000000     275.00000000     275.00000000     275.00000000     275.00000000     275.00000000
         275.00000000     275.00000000     275.00000000     275.00000000     275.00000000     275.00000000     275.00000000     275.00000000     275.00000000     275.00000000     275.00000000     275.00000000     275.00000000     275.00000000     275.00000000     275.00000000     275.00000000     275.00000000     275.00000000     275.00000000
         275.00000000     275.00000000     275.00000000     275.00000000     275.00000000     275.00000000     275.00000000     275.00000000     275.00000000     275.00000000     275.00000000     275.00000000     275.00000000     275.00000000     275.00000000     275.00000000     275.00000000     275.00000000     275.00000000     275.00000000
         275.00000000     275.00000000     275.00000000     275.00000000     275.00000000     275.00000000     275.00000000     275.00000000     275.00000000     275.00000000     275.00000000     275.00000000     275.00000000     275.00000000     275.00000000     275.00000000     275.00000000     275.00000000     275.00000000     275.00000000
         275.00000000     275.00000000     275.00000000     275.00000000     275.00000000     275.00000000     275.00000000     275.00000000     275.00000000     275.00000000     275.00000000     275.00000000     275.00000000     275.00000000     275.00000000     275.00000000     275.00000000     275.00000000     275.00000000     275.00000000
         200.00000000     200.00000000     200.00000000     200.00000000     200.00000000     200.00000000     200.00000000     200.00000000     200.00000000     200.00000000     200.00000000     200.00000000     200.00000000     200.00000000     200.00000000     200.00000000     200.00000000     200.00000000     200.00000000     200.00000000
         200.00000000     200.00000000     200.00000000     200.00000000     200.00000000     200.00000000     200.00000000     200.00000000     200.00000000     200.00000000     200.00000000     200.00000000     200.00000000     200.00000000     200.00000000     200.00000000     200.00000000     200.00000000     200.00000000     200.00000000
         200.00000000     200.00000000     200.00000000     200.00000000     200.00000000     200.00000000     200.00000000     200.00000000     200.00000000     200.00000000     200.00000000     200.00000000     200.00000000     200.00000000     200.00000000     200.00000000     200.00000000     200.00000000     200.00000000     200.00000000
         200.00000000     200.00000000     200.00000000     200.00000000     200.00000000     200.00000000     200.00000000     200.00000000     200.00000000     200.00000000     200.00000000     200.00000000     200.00000000     200.00000000     200.00000000     200.00000000     200.00000000     200.00000000     200.00000000     200.00000000
         200.00000000     200.00000000     200.00000000     200.00000000     200.00000000     200.00000000     200.00000000     200.00000000     200.00000000     200.00000000     200.00000000     200.00000000     200.00000000     200.00000000     200.00000000     200.00000000     200.00000000     200.00000000     200.00000000     200.00000000
         200.00000000     200.00000000     200.00000000     200.00000000     200.00000000     200.00000000     200.00000000     200.00000000     200.00000000     200.00000000     200.00000000     200.00000000     200.00000000     200.00000000     200.00000000     200.00000000     200.00000000     200.00000000     200.00000000     200.00000000
         200.00000000     200.00000000     200.00000000     200.00000000     200.00000000     200.00000000     200.00000000     200.00000000     200.00000000     200.00000000     200.00000000     200.00000000     200.00000000     400.00000000     400.00000000     400.00000000     400.00000000     400.00000000     400.00000000     400.00000000
         400.00000000     400.00000000     400.00000000     400.00000000     400.00000000     400.00000000     400.00000000     400.00000000     400.00000000     400.00000000     400.00000000     400.00000000     400.00000000     400.00000000     400.00000000     400.00000000     400.00000000     400.00000000     400.00000000     400.00000000
         400.00000000     400.00000000     400.00000000     400.00000000     400.00000000     400.00000000     400.00000000     400.00000000     400.00000000     400.00000000     400.00000000     400.00000000     400.00000000     400.00000000     400.00000000     400.00000000     400.00000000     400.00000000     400.00000000     400.00000000
         400.00000000     400.00000000     400.00000000     400.00000000     400.00000000     400.00000000     400.00000000     400.00000000     400.00000000     400.00000000     400.00000000     400.00000000     400.00000000     400.00000000     400.00000000     400.00000000     400.00000000     400.00000000     400.00000000     400.00000000
         400.00000000     400.00000000     400.00000000     400.00000000     400.00000000     400.00000000     400.00000000     400.00000000     400.00000000     400.00000000     400.00000000     400.00000000     400.00000000     400.00000000     400.00000000     400.00000000     400.00000000     400.00000000     400.00000000     400.00000000
         400.00000000     400.00000000     400.00000000     400.00000000     400.00000000     400.00000000     400.00000000     400.00000000     400.00000000     400.00000000     400.00000000     400.00000000     400.00000000     400.00000000     400.00000000     400.00000000     400.00000000     400.00000000     400.00000000     400.00000000
         400.00000000     400.00000000     400.00000000     400.00000000     400.00000000     400.00000000     400.00000000     400.00000000     400.00000000     400.00000000     400.00000000     400.00000000     400.00000000     400.00000000     400.00000000     400.00000000     400.00000000     400.00000000     400.00000000     400.00000000
         400.00000000     400.00000000     400.00000000     400.00000000     400.00000000     400.00000000     400.00000000     400.00000000     400.00000000     400.00000000     400.00000000     400.00000000     400.00000000     400.00000000     400.00000000     400.00000000     400.00000000     400.00000000     400.00000000     400.00000000
         400.00000000     400.00000000     400.00000000     400.00000000     400.00000000     400.00000000     400.00000000     400.00000000     400.00000000     400.00000000     400.00000000     400.00000000     400.00000000     400.00000000     400.00000000     400.00000000     400.00000000     400.00000000     400.00000000     400.00000000
         400.00000000     400.00000000     400.00000000     400.00000000     400.00000000     400.00000000     400.00000000     400.00000000     400.00000000     400.00000000     400.00000000     400.00000000     400.00000000     400.00000000     400.00000000     400.00000000     400.00000000     400.00000000     400.00000000     400.00000000
         400.00000000     400.00000000     400.00000000     400.00000000     400.00000000     400.00000000     400.00000000     400.00000000     400.00000000     400.00000000     400.00000000     400.00000000     400.00000000     400.00000000     400.00000000     400.00000000     400.00000000     400.00000000     400.00000000     400.00000000
         400.00000000     400.00000000     400.00000000     400.00000000     400.00000000     400.00000000     400.00000000     400.00000000     400.00000000     400.00000000     275.00000000     275.00000000     275.00000000     275.00000000     275.00000000     275.00000000     275.00000000     275.00000000     275.00000000     275.00000000
         275.00000000     275.00000000     275.00000000     275.00000000     275.00000000     275.00000000     275.00000000     275.00000000     275.00000000     275.00000000     275.00000000     275.00000000     275.00000000     275.00000000     275.00000000     275.00000000     275.00000000     275.00000000     275.00000000     275.00000000
         275.00000000     275.00000000     275.00000000     275.00000000     275.00000000     275.00000000     275.00000000     275.00000000     275.00000000     275.00000000     275.00000000     275.00000000     275.00000000     275.00000000     275.00000000     275.00000000     275.00000000     275.00000000     275.00000000     275.00000000
         275.00000000     275.00000000     275.00000000     275.00000000     275.00000000     275.00000000     275.00000000     275.00000000     275.00000000     275.00000000     275.00000000     275.00000000     275.00000000     275.00000000     275.00000000     275.00000000     275.00000000     275.00000000     275.00000000     275.00000000
         275.00000000     275.00000000     275.00000000     275.00000000     275.00000000     275.00000000     275.00000000     275.00000000     275.00000000     275.00000000     275.00000000     275.00000000     275.00000000     275.00000000     275.00000000     275.00000000     275.00000000     275.00000000     275.00000000     275.00000000
         275.00000000     275.00000000     275.00000000     275.00000000     275.00000000     275.00000000     275.00000000     275.00000000     275.00000000     275.00000000     275.00000000     275.00000000     275.00000000     275.00000000     275.00000000     275.00000000     275.00000000     275.00000000     275.00000000     275.00000000
         275.00000000     275.00000000     275.00000000     275.00000000     275.00000000     275.00000000     275.00000000     275.00000000     275.00000000     275.00000000     275.00000000     275.00000000     275.00000000     275.00000000     275.00000000     275.00000000     275.00000000     275.00000000     275.00000000     275.00000000
         275.00000000     275.00000000     275.00000000     275.00000000     275.00000000     275.00000000     275.00000000     275.00000000     275.00000000     275.00000000     275.00000000     275.00000000     275.00000000     275.00000000     275.00000000     275.00000000     275.00000000     275.00000000     275.00000000     275.00000000
         275.00000000     275.00000000     275.00000000     275.00000000     275.00000000     275.00000000     275.00000000     275.00000000     275.00000000     275.00000000     275.00000000     275.00000000     275.00000000     275.00000000     275.00000000     275.00000000     275.00000000     275.00000000     275.00000000     275.00000000
         275.00000000     275.00000000     275.00000000     275.00000000     275.00000000     275.00000000     275.00000000     275.00000000     275.00000000     275.00000000     275.00000000     275.00000000     275.00000000     275.00000000     275.00000000     275.00000000     275.00000000     275.00000000     275.00000000     275.00000000
         275.00000000     275.00000000     275.00000000     275.00000000     275.00000000     275.00000000     275.00000000     275.00000000     275.00000000     275.00000000     275.00000000     275.00000000     275.00000000     275.00000000     275.00000000     275.00000000     275.00000000     275.00000000     275.00000000     275.00000000
         275.00000000     275.00000000     275.00000000     275.00000000     275.00000000     275.00000000     275.00000000     275.00000000     275.00000000     275.00000000     275.00000000     275.00000000     275.00000000     275.00000000     275.00000000     275.00000000     275.00000000     275.00000000     275.00000000     275.00000000
         275.00000000     275.00000000     275.00000000     275.00000000     275.00000000     275.00000000     275.00000000     275.00000000     275.00000000     275.00000000     275.00000000     275.00000000     275.00000000     275.00000000     275.00000000     275.00000000     275.00000000     275.00000000     275.00000000     275.00000000
         275.00000000     275.00000000     275.00000000     275.00000000     275.00000000     275.00000000     275.00000000     275.00000000     275.00000000     275.00000000     275.00000000     275.00000000     275.00000000     275.00000000     275.00000000     275.00000000     275.00000000     200.00000000     200.00000000     200.00000000
         200.00000000     200.00000000     200.00000000     200.00000000     200.00000000     200.00000000     200.00000000     200.00000000     200.00000000     200.00000000     200.00000000     200.00000000     200.00000000     200.00000000     200.00000000     200.00000000     200.00000000     200.00000000     200.00000000     200.00000000
         200.00000000     200.00000000     200.00000000     200.00000000     200.00000000     200.00000000     200.00000000     200.00000000     200.00000000     200.00000000     200.00000000     200.00000000     200.00000000     200.00000000     200.00000000     200.00000000     200.00000000     200.00000000     200.00000000     200.00000000
         200.00000000     200.00000000     200.00000000     200.00000000     200.00000000     200.00000000     200.00000000     200.00000000     200.00000000     200.00000000     200.00000000     200.00000000     200.00000000     200.00000000     200.00000000     200.00000000     200.00000000     200.00000000     200.00000000     200.00000000
         200.00000000     200.00000000     200.00000000     200.00000000     200.00000000     200.00000000     200.00000000     200.00000000     200.00000000     200.00000000     200.00000000     200.00000000     200.00000000     200.00000000     200.00000000     200.00000000     200.00000000     200.00000000     200.00000000     200.00000000
         200.00000000     200.00000000     200.00000000     200.00000000     200.00000000     200.00000000     200.00000000     200.00000000     200.00000000     200.00000000     200.00000000     200.00000000     200.00000000     200.00000000     200.00000000     200.00000000     200.00000000     200.00000000     200.00000000     200.00000000
         200.00000000     200.00000000     200.00000000     200.00000000     200.00000000     200.00000000     200.00000000     200.00000000     200.00000000     200.00000000     200.00000000     200.00000000     200.00000000     200.00000000     200.00000000     200.00000000     200.00000000     200.00000000     200.00000000     200.00000000
         200.00000000     200.00000000     200.00000000     200.00000000     200.00000000     200.00000000     200.00000000     200.00000000     200.00000000     200.00000000     200.00000000     200.00000000     200.00000000     200.00000000     200.00000000     200.00000000     200.00000000     200.00000000     400.00000000     400.00000000
         400.00000000     400.00000000     400.00000000     400.00000000     400.00000000     400.00000000     400.00000000     400.00000000     400.00000000     400.00000000     400.00000000     400.00000000     400.00000000     400.00000000     400.00000000     400.00000000     400.00000000     400.00000000     400.00000000     400.00000000
         400.00000000     400.00000000     400.00000000     400.00000000     400.00000000     400.00000000     400.00000000     400.00000000     400.00000000     400.00000000     400.00000000     400.00000000     400.00000000     400.00000000     400.00000000     400.00000000     400.00000000     400.00000000     400.00000000     400.00000000
         400.00000000     400.00000000     400.00000000     400.00000000     400.00000000     400.00000000     400.00000000     400.00000000     400.00000000     400.00000000     400.00000000     400.00000000     400.00000000     400.00000000     400.00000000     400.00000000     400.00000000     400.00000000     400.00000000     400.00000000
         400.00000000     400.00000000     400.00000000     400.00000000     400.00000000     400.00000000     400.00000000     400.00000000     400.00000000     400.00000000     400.00000000     400.00000000     400.00000000     400.00000000     400.00000000     400.00000000     400.00000000     400.00000000     400.00000000     400.00000000
         400.00000000     400.00000000     400.00000000     400.00000000     400.00000000     400.00000000     400.00000000     400.00000000     400.00000000     400.00000000     400.00000000     400.00000000     400.00000000     400.00000000     400.00000000     400.00000000     400.00000000     400.00000000     400.00000000     400.00000000
         400.00000000     400.00000000     400.00000000     400.00000000     400.00000000     400.00000000     400.00000000     400.00000000     400.00000000     400.00000000     400.00000000     400.00000000     400.00000000     400.00000000     400.00000000     400.00000000     400.00000000     400.00000000     400.00000000     400.00000000
         400.00000000     400.00000000     400.00000000     400.00000000     400.00000000     400.00000000     400.00000000     400.00000000     400.00000000     400.00000000     400.00000000     400.00000000     400.00000000     400.00000000     400.00000000     400.00000000     400.00000000     400.00000000     400.00000000     400.00000000
         400.00000000     400.00000000     400.00000000     400.00000000     400.00000000     400.00000000     400.00000000     400.00000000     400.00000000     400.00000000     400.00000000     400.00000000     400.00000000     400.00000000     400.00000000     400.00000000     400.00000000     400.00000000     400.00000000     400.00000000
         400.00000000     400.00000000     400.00000000     400.00000000     400.00000000     400.00000000     400.00000000     400.00000000     400.00000000     400.00000000     400.00000000     400.00000000     400.00000000     400.00000000     400.00000000     400.00000000     400.00000000     400.00000000     400.00000000     400.00000000
         400.00000000     400.00000000     400.00000000     400.00000000     400.00000000     400.00000000     400.00000000     400.00000000     400.00000000     400.00000000     400.00000000     400.00000000     400.00000000     400.00000000     400.00000000     400.00000000     400.00000000     400.00000000     400.00000000     400.00000000
         400.00000000     400.00000000     400.00000000     400.00000000     400.00000000     400.00000000     400.00000000     400.00000000     400.00000000     400.00000000     400.00000000     400.00000000     400.00000000     400.00000000     400.00000000     400.00000000     400.00000000     400.00000000     400.00000000     275.00000000
         275.00000000     275.00000000     275.00000000     275.00000000     275.00000000     275.00000000     275.00000000     275.00000000     275.00000000     275.00000000     275.00000000     275.00000000     275.00000000     275.00000000     275.00000000     275.00000000     275.00000000     275.00000000     275.00000000     275.00000000
         275.00000000     275.00000000     275.00000000     275.00000000     275.00000000     275.00000000     275.00000000     275.00000000     275.00000000     275.00000000     275.00000000     275.00000000     275.00000000     275.00000000     275.00000000     275.00000000     275.00000000     275.00000000     275.00000000     275.00000000
         275.00000000     275.00000000     275.00000000     275.00000000     275.00000000     275.00000000     275.00000000     275.00000000     275.00000000     275.00000000     275.00000000     275.00000000     275.00000000     275.00000000     275.00000000     275.00000000     275.00000000     275.00000000     275.00000000     275.00000000
         275.00000000     275.00000000     275.00000000     275.00000000     275.00000000     275.00000000     275.00000000     275.00000000     275.00000000     275.00000000     275.00000000     275.00000000     275.00000000     275.00000000     275.00000000     275.00000000     275.00000000     275.00000000     275.00000000     275.00000000
         275.00000000     275.00000000     275.00000000     275.00000000     275.00000000     275.00000000     275.00000000     275.00000000     275.00000000     275.00000000     275.00000000     275.00000000     275.00000000     275.00000000     275.00000000     275.00000000     275.00000000     275.00000000     275.00000000     275.00000000
         275.00000000     275.00000000     275.00000000     275.00000000     275.00000000     275.00000000     275.00000000     275.00000000     275.00000000     275.00000000     275.00000000     275.00000000     275.00000000     275.00000000     275.00000000     275.00000000     275.00000000     275.00000000     275.00000000     275.00000000
         275.00000000     275.00000000     275.00000000     275.00000000     275.00000000     275.00000000     275.00000000     275.00000000     275.00000000     275.00000000     275.00000000     275.00000000     275.00000000     275.00000000     275.00000000     275.00000000     275.00000000     275.00000000     275.00000000     275.00000000
         275.00000000     275.00000000     275.00000000     275.00000000     275.00000000     275.00000000     275.00000000     275.00000000     275.00000000     275.00000000     275.00000000     275.00000000     275.00000000     275.00000000     275.00000000     275.00000000     275.00000000     275.00000000     275.00000000     275.00000000