BEGIN options
END options

BEGIN dimensions
  MAXBOUND  288
END dimensions

BEGIN period  1
  1 9442       0.00347222   12500.00000000      -2.00000000
  1 6195       0.99652778   12500.00000000      -2.00000000
  1 9440       0.01041667   12500.00000000      -2.00000000
  1 9434       0.00347222   12500.00000000      -2.00000000
  1 6203       0.99652778   12500.00000000      -2.00000000
  1 6197       0.98958333   12500.00000000      -2.00000000
  1 9437       0.01736111   12500.00000000      -2.00000000
  1 9432       0.01041667   12500.00000000      -2.00000000
  1 6205       0.98958333   12500.00000000      -2.00000000
  1 6200       0.98263889   12500.00000000      -2.00000000
  1 9435       0.02430556   12500.00000000      -2.00000000
  1 9429       0.01736111   12500.00000000      -2.00000000
  1 6208       0.98263889   12500.00000000      -2.00000000
  1 6202       0.97569444   12500.00000000      -2.00000000
  1 9422       0.03125000   12500.00000000      -2.00000000
  1 9427       0.02430556   12500.00000000      -2.00000000
  1 6210       0.97569444   12500.00000000      -2.00000000
  1 6215       0.96875000   12500.00000000      -2.00000000
  1 9420       0.03819444   12500.00000000      -2.00000000
  1 9414       0.03125000   12500.00000000      -2.00000000
  1 6223       0.96875000   12500.00000000      -2.00000000
  1 6217       0.96180556   12500.00000000      -2.00000000
  1 9417       0.04513889   12500.00000000      -2.00000000
  1 9412       0.03819444   12500.00000000      -2.00000000
  1 6225       0.96180556   12500.00000000      -2.00000000
  1 6220       0.95486111   12500.00000000      -2.00000000
  1 9415       0.05208333   12500.00000000      -2.00000000
  1 9409       0.04513889   12500.00000000      -2.00000000
  1 6228       0.95486111   12500.00000000      -2.00000000
  1 6222       0.94791667   12500.00000000      -2.00000000
  1 9372       0.05902778   12500.00000000      -2.00000000
  1 9407       0.05208333   12500.00000000      -2.00000000
  1 6230       0.94791667   12500.00000000      -2.00000000
  1 6265       0.94097222   12500.00000000      -2.00000000
  1 9370       0.06597222   12500.00000000      -2.00000000
  1 9364       0.05902778   12500.00000000      -2.00000000
  1 6273       0.94097222   12500.00000000      -2.00000000
  1 6267       0.93402778   12500.00000000      -2.00000000
  1 9367       0.07291667   12500.00000000      -2.00000000
  1 9362       0.06597222   12500.00000000      -2.00000000
  1 6275       0.93402778   12500.00000000      -2.00000000
  1 6270       0.92708333   12500.00000000      -2.00000000
  1 9365       0.07986111   12500.00000000      -2.00000000
  1 9359       0.07291667   12500.00000000      -2.00000000
  1 6278       0.92708333   12500.00000000      -2.00000000
  1 6272       0.92013889   12500.00000000      -2.00000000
  1 9352       0.08680556   12500.00000000      -2.00000000
  1 9357       0.07986111   12500.00000000      -2.00000000
  1 6280       0.92013889   12500.00000000      -2.00000000
  1 6285       0.91319444   12500.00000000      -2.00000000
  1 9350       0.09375000   12500.00000000      -2.00000000
  1 9344       0.08680556   12500.00000000      -2.00000000
  1 6293       0.91319444   12500.00000000      -2.00000000
  1 6287       0.90625000   12500.00000000      -2.00000000
  1 9347       0.10069444   12500.00000000      -2.00000000
  1 9342       0.09375000   12500.00000000      -2.00000000
  1 6295       0.90625000   12500.00000000      -2.00000000
  1 6290       0.89930556   12500.00000000      -2.00000000
  1 9345       0.10763889   12500.00000000      -2.00000000
  1 9339       0.10069444   12500.00000000      -2.00000000
  1 6298       0.89930556   12500.00000000      -2.00000000
  1 6292       0.89236111   12500.00000000      -2.00000000
  1 9293       0.11458333   12500.00000000      -2.00000000
  1 9337       0.10763889   12500.00000000      -2.00000000
  1 6300       0.89236111   12500.00000000      -2.00000000
  1 6335       0.88541667   12500.00000000      -2.00000000
  1 9291       0.12152778   12500.00000000      -2.00000000
  1 9285       0.11458333   12500.00000000      -2.00000000
  1 6343       0.88541667   12500.00000000      -2.00000000
  1 6337       0.87847222   12500.00000000      -2.00000000
  1 9288       0.12847222   12500.00000000      -2.00000000
  1 9283       0.12152778   12500.00000000      -2.00000000
  1 6345       0.87847222   12500.00000000      -2.00000000
  1 6340       0.87152778   12500.00000000      -2.00000000
  1 9286       0.13541667   12500.00000000      -2.00000000
  1 9280       0.12847222   12500.00000000      -2.00000000
  1 6348       0.87152778   12500.00000000      -2.00000000
  1 6342       0.86458333   12500.00000000      -2.00000000
  1 9273       0.14236111   12500.00000000      -2.00000000
  1 9278       0.13541667   12500.00000000      -2.00000000
  1 6350       0.86458333   12500.00000000      -2.00000000
  1 6355       0.85763889   12500.00000000      -2.00000000
  1 9271       0.14930556   12500.00000000      -2.00000000
  1 9265       0.14236111   12500.00000000      -2.00000000
  1 6363       0.85763889   12500.00000000      -2.00000000
  1 6357       0.85069444   12500.00000000      -2.00000000
  1 9268       0.15625000   12500.00000000      -2.00000000
  1 9263       0.14930556   12500.00000000      -2.00000000
  1 6365       0.85069444   12500.00000000      -2.00000000
  1 6360       0.84375000   12500.00000000      -2.00000000
  1 9266       0.16319444   12500.00000000      -2.00000000
  1 9260       0.15625000   12500.00000000      -2.00000000
  1 6368       0.84375000   12500.00000000      -2.00000000
  1 6362       0.83680556   12500.00000000      -2.00000000
  1 9112       0.17013889   12500.00000000      -2.00000000
  1 9258       0.16319444   12500.00000000      -2.00000000
  1 6370       0.83680556   12500.00000000      -2.00000000
  1 6405       0.82986111   12500.00000000      -2.00000000
  1 9110       0.17708333   12500.00000000      -2.00000000
  1 9104       0.17013889   12500.00000000      -2.00000000
  1 6413       0.82986111   12500.00000000      -2.00000000
  1 6407       0.82291667   12500.00000000      -2.00000000
  1 9107       0.18402778   12500.00000000      -2.00000000
  1 9102       0.17708333   12500.00000000      -2.00000000
  1 6415       0.82291667   12500.00000000      -2.00000000
  1 6410       0.81597222   12500.00000000      -2.00000000
  1 9105       0.19097222   12500.00000000      -2.00000000
  1 9099       0.18402778   12500.00000000      -2.00000000
  1 6418       0.81597222   12500.00000000      -2.00000000
  1 6412       0.80902778   12500.00000000      -2.00000000
  1 9092       0.19791667   12500.00000000      -2.00000000
  1 9097       0.19097222   12500.00000000      -2.00000000
  1 6420       0.80902778   12500.00000000      -2.00000000
  1 6425       0.80208333   12500.00000000      -2.00000000
  1 9090       0.20486111   12500.00000000      -2.00000000
  1 9084       0.19791667   12500.00000000      -2.00000000
  1 6433       0.80208333   12500.00000000      -2.00000000
  1 6427       0.79513889   12500.00000000      -2.00000000
  1 9087       0.21180556   12500.00000000      -2.00000000
  1 9082       0.20486111   12500.00000000      -2.00000000
  1 6435       0.79513889   12500.00000000      -2.00000000
  1 6430       0.78819444   12500.00000000      -2.00000000
  1 9085       0.21875000   12500.00000000      -2.00000000
  1 9079       0.21180556   12500.00000000      -2.00000000
  1 6438       0.78819444   12500.00000000      -2.00000000
  1 6432       0.78125000   12500.00000000      -2.00000000
  1 8787       0.22569444   12500.00000000      -2.00000000
  1 9077       0.21875000   12500.00000000      -2.00000000
  1 6440       0.78125000   12500.00000000      -2.00000000
  1 6475       0.77430556   12500.00000000      -2.00000000
  1 8785       0.23263889   12500.00000000      -2.00000000
  1 8779       0.22569444   12500.00000000      -2.00000000
  1 6483       0.77430556   12500.00000000      -2.00000000
  1 6477       0.76736111   12500.00000000      -2.00000000
  1 8782       0.23958333   12500.00000000      -2.00000000
  1 8777       0.23263889   12500.00000000      -2.00000000
  1 6485       0.76736111   12500.00000000      -2.00000000
  1 6480       0.76041667   12500.00000000      -2.00000000
  1 8780       0.24652778   12500.00000000      -2.00000000
  1 8774       0.23958333   12500.00000000      -2.00000000
  1 6488       0.76041667   12500.00000000      -2.00000000
  1 6482       0.75347222   12500.00000000      -2.00000000
  1 8767       0.25347222   12500.00000000      -2.00000000
  1 8772       0.24652778   12500.00000000      -2.00000000
  1 6490       0.75347222   12500.00000000      -2.00000000
  1 6495       0.74652778   12500.00000000      -2.00000000
  1 8765       0.26041667   12500.00000000      -2.00000000
  1 8759       0.25347222   12500.00000000      -2.00000000
  1 6503       0.74652778   12500.00000000      -2.00000000
  1 6497       0.73958333   12500.00000000      -2.00000000
  1 8762       0.26736111   12500.00000000      -2.00000000
  1 8757       0.26041667   12500.00000000      -2.00000000
  1 6505       0.73958333   12500.00000000      -2.00000000
  1 6500       0.73263889   12500.00000000      -2.00000000
  1 8760       0.27430556   12500.00000000      -2.00000000
  1 8754       0.26736111   12500.00000000      -2.00000000
  1 6508       0.73263889   12500.00000000      -2.00000000
  1 6502       0.72569444   12500.00000000      -2.00000000
  1 8435       0.28125000   12500.00000000      -2.00000000
  1 8752       0.27430556   12500.00000000      -2.00000000
  1 6510       0.72569444   12500.00000000      -2.00000000
  1 6545       0.71875000   12500.00000000      -2.00000000
  1 8433       0.28819444   12500.00000000      -2.00000000
  1 8427       0.28125000   12500.00000000      -2.00000000
  1 6553       0.71875000   12500.00000000      -2.00000000
  1 6547       0.71180556   12500.00000000      -2.00000000
  1 8430       0.29513889   12500.00000000      -2.00000000
  1 8425       0.28819444   12500.00000000      -2.00000000
  1 6555       0.71180556   12500.00000000      -2.00000000
  1 6550       0.70486111   12500.00000000      -2.00000000
  1 8428       0.30208333   12500.00000000      -2.00000000
  1 8422       0.29513889   12500.00000000      -2.00000000
  1 6558       0.70486111   12500.00000000      -2.00000000
  1 6552       0.69791667   12500.00000000      -2.00000000
  1 8415       0.30902778   12500.00000000      -2.00000000
  1 8420       0.30208333   12500.00000000      -2.00000000
  1 6560       0.69791667   12500.00000000      -2.00000000
  1 6565       0.69097222   12500.00000000      -2.00000000
  1 8413       0.31597222   12500.00000000      -2.00000000
  1 8407       0.30902778   12500.00000000      -2.00000000
  1 6573       0.69097222   12500.00000000      -2.00000000
  1 6567       0.68402778   12500.00000000      -2.00000000
  1 8410       0.32291667   12500.00000000      -2.00000000
  1 8405       0.31597222   12500.00000000      -2.00000000
  1 6575       0.68402778   12500.00000000      -2.00000000
  1 6570       0.67708333   12500.00000000      -2.00000000
  1 8408       0.32986111   12500.00000000      -2.00000000
  1 8402       0.32291667   12500.00000000      -2.00000000
  1 6578       0.67708333   12500.00000000      -2.00000000
  1 6572       0.67013889   12500.00000000      -2.00000000
  1 8002       0.33680556   12500.00000000      -2.00000000
  1 8400       0.32986111   12500.00000000      -2.00000000
  1 6580       0.67013889   12500.00000000      -2.00000000
  1 6615       0.66319444   12500.00000000      -2.00000000
  1 8000       0.34375000   12500.00000000      -2.00000000
  1 7994       0.33680556   12500.00000000      -2.00000000
  1 6623       0.66319444   12500.00000000      -2.00000000
  1 6617       0.65625000   12500.00000000      -2.00000000
  1 7997       0.35069444   12500.00000000      -2.00000000
  1 7992       0.34375000   12500.00000000      -2.00000000
  1 6625       0.65625000   12500.00000000      -2.00000000
  1 6620       0.64930556   12500.00000000      -2.00000000
  1 7995       0.35763889   12500.00000000      -2.00000000
  1 7989       0.35069444   12500.00000000      -2.00000000
  1 6628       0.64930556   12500.00000000      -2.00000000
  1 6622       0.64236111   12500.00000000      -2.00000000
  1 7982       0.36458333   12500.00000000      -2.00000000
  1 7987       0.35763889   12500.00000000      -2.00000000
  1 6630       0.64236111   12500.00000000      -2.00000000
  1 6635       0.63541667   12500.00000000      -2.00000000
  1 7980       0.37152778   12500.00000000      -2.00000000
  1 7974       0.36458333   12500.00000000      -2.00000000
  1 6643       0.63541667   12500.00000000      -2.00000000
  1 6637       0.62847222   12500.00000000      -2.00000000
  1 7977       0.37847222   12500.00000000      -2.00000000
  1 7972       0.37152778   12500.00000000      -2.00000000
  1 6645       0.62847222   12500.00000000      -2.00000000
  1 6640       0.62152778   12500.00000000      -2.00000000
  1 7975       0.38541667   12500.00000000      -2.00000000
  1 7969       0.37847222   12500.00000000      -2.00000000
  1 6648       0.62152778   12500.00000000      -2.00000000
  1 6642       0.61458333   12500.00000000      -2.00000000
  1 7572       0.39236111   12500.00000000      -2.00000000
  1 7967       0.38541667   12500.00000000      -2.00000000
  1 6650       0.61458333   12500.00000000      -2.00000000
  1 6694       0.60763889   12500.00000000      -2.00000000
  1 7570       0.39930556   12500.00000000      -2.00000000
  1 7564       0.39236111   12500.00000000      -2.00000000
  1 6702       0.60763889   12500.00000000      -2.00000000
  1 6696       0.60069444   12500.00000000      -2.00000000
  1 7567       0.40625000   12500.00000000      -2.00000000
  1 7562       0.39930556   12500.00000000      -2.00000000
  1 6704       0.60069444   12500.00000000      -2.00000000
  1 6699       0.59375000   12500.00000000      -2.00000000
  1 7565       0.41319444   12500.00000000      -2.00000000
  1 7559       0.40625000   12500.00000000      -2.00000000
  1 6707       0.59375000   12500.00000000      -2.00000000
  1 6701       0.58680556   12500.00000000      -2.00000000
  1 7552       0.42013889   12500.00000000      -2.00000000
  1 7557       0.41319444   12500.00000000      -2.00000000
  1 6709       0.58680556   12500.00000000      -2.00000000
  1 6714       0.57986111   12500.00000000      -2.00000000
  1 7550       0.42708333   12500.00000000      -2.00000000
  1 7544       0.42013889   12500.00000000      -2.00000000
  1 6722       0.57986111   12500.00000000      -2.00000000
  1 6716       0.57291667   12500.00000000      -2.00000000
  1 7547       0.43402778   12500.00000000      -2.00000000
  1 7542       0.42708333   12500.00000000      -2.00000000
  1 6724       0.57291667   12500.00000000      -2.00000000
  1 6719       0.56597222   12500.00000000      -2.00000000
  1 7545       0.44097222   12500.00000000      -2.00000000
  1 7539       0.43402778   12500.00000000      -2.00000000
  1 6727       0.56597222   12500.00000000      -2.00000000
  1 6721       0.55902778   12500.00000000      -2.00000000
  1 7226       0.44791667   12500.00000000      -2.00000000
  1 7537       0.44097222   12500.00000000      -2.00000000
  1 6729       0.55902778   12500.00000000      -2.00000000
  1 6872       0.55208333   12500.00000000      -2.00000000
  1 7224       0.45486111   12500.00000000      -2.00000000
  1 7218       0.44791667   12500.00000000      -2.00000000
  1 6880       0.55208333   12500.00000000      -2.00000000
  1 6874       0.54513889   12500.00000000      -2.00000000
  1 7221       0.46180556   12500.00000000      -2.00000000
  1 7216       0.45486111   12500.00000000      -2.00000000
  1 6882       0.54513889   12500.00000000      -2.00000000
  1 6877       0.53819444   12500.00000000      -2.00000000
  1 7219       0.46875000   12500.00000000      -2.00000000
  1 7213       0.46180556   12500.00000000      -2.00000000
  1 6885       0.53819444   12500.00000000      -2.00000000
  1 6879       0.53125000   12500.00000000      -2.00000000
  1 7206       0.47569444   12500.00000000      -2.00000000
  1 7211       0.46875000   12500.00000000      -2.00000000
  1 6887       0.53125000   12500.00000000      -2.00000000
  1 6892       0.52430556   12500.00000000      -2.00000000
  1 7204       0.48263889   12500.00000000      -2.00000000
  1 7198       0.47569444   12500.00000000      -2.00000000
  1 6900       0.52430556   12500.00000000      -2.00000000
  1 6894       0.51736111   12500.00000000      -2.00000000
  1 7201       0.48958333   12500.00000000      -2.00000000
  1 7196       0.48263889   12500.00000000      -2.00000000
  1 6902       0.51736111   12500.00000000      -2.00000000
  1 6897       0.51041667   12500.00000000      -2.00000000
  1 7199       0.49652778   12500.00000000      -2.00000000
  1 7193       0.48958333   12500.00000000      -2.00000000
  1 6905       0.51041667   12500.00000000      -2.00000000
  1 6899       0.50347222   12500.00000000      -2.00000000
  1 6907       0.50347222   12500.00000000      -2.00000000
  1 7191       0.49652778   12500.00000000      -2.00000000
END period  1

