# LPF for MODFLOW, generated by Flopy.
        53    -1E+30         0  constantcv novfc
         4         4         4         4         4
         0         0         0         0         0
   -1 -1 -1 -1 -1
         0         0         0         0         0
         0         0         0         0         0
INTERNAL               1  (25E15.6) -1 #hk layer 1                    
   7.652959E+01   9.733066E+01   3.680293E+01   1.615590E+01   1.222310E+01   3.905836E+01   8.170965E+01   8.238404E+01   7.776012E+01   3.345383E+01   7.380914E+01   8.762066E+01   5.831499E+01   1.513052E+00   4.482543E+00   2.173246E+01   7.551432E+01   3.693594E+01   3.933138E+01   2.119168E+01   7.410696E+01   8.115242E+01   5.131891E+01   2.759793E+01   3.415269E+01
   8.018483E+01   3.437285E+01   8.710328E+01   3.792762E+01   2.240939E+01   9.156404E+01   2.616452E+01   9.763177E+01   2.558133E+01   8.400629E+00   6.351565E+01   5.787908E+01   3.816433E+01   8.040213E+01   1.208980E+01   2.576195E+01   9.129850E+01   2.691626E+01   4.821637E+00   3.029458E+01   1.049620E+01   4.581735E+01   5.023264E+01   6.959903E+01   4.482977E+01
   3.729337E+01   3.379029E+01   8.873717E+01   4.623148E+01   9.326711E+01   2.590857E+01   3.191559E+01   8.227419E+01   2.631646E+01   4.524369E+01   8.316909E+01   8.327790E+01   8.658913E+01   9.750256E+00   1.975364E+01   2.833045E+01   9.490710E+01   2.876863E+01   8.222023E+01   1.998999E+01   8.959116E+01   5.606170E+01   5.899408E+01   4.921421E+01   3.431389E+00
   3.448910E+01   7.310603E+01   6.778100E+00   5.294693E+01   5.821932E+01   8.584573E+01   2.518962E+01   1.956816E+01   9.511516E+01   4.266015E+01   9.849509E+01   8.268031E+01   4.063436E+01   5.152961E+01   1.374311E+01   1.429563E+01   9.306986E+01   6.504380E+01   7.380740E+01   7.981445E+01   4.410634E+01   9.104995E+00   2.227844E+01   7.873271E+01   6.850009E+01
   8.786996E+01   2.396317E+01   4.608335E+01   7.923621E+01   9.886787E+01   5.136557E+01   2.339233E+01   4.199710E+01   4.843565E+00   9.044017E+01   5.723314E+01   4.343667E+01   9.921809E+01   9.434430E+00   7.906915E+01   9.063585E+01   4.053061E+01   9.933691E+01   3.700940E+01   8.488430E+01   7.534134E+01   9.901310E+01   1.905404E+01   4.011299E+01   6.397141E+01
   3.237122E+01   3.485152E+01   7.464754E+01   4.022842E+01   4.632113E+01   1.734466E+01   4.803852E+01   8.332024E+01   2.151985E+01   1.191000E+01   5.034475E+01   6.532910E+01   4.461108E+00   6.238843E+00   8.057948E+01   7.263657E+01   9.425712E+00   2.265300E+01   1.504530E+01   2.628742E+01   3.354444E-01   6.081260E+00   6.300871E+01   4.295003E+01   5.215575E+01
   4.328030E+01   6.574585E+01   6.998029E+01   9.802253E+01   8.985104E+01   9.738583E+00   5.551264E+01   4.724268E+01   3.501954E+01   9.211070E+01   5.179297E+01   3.154445E+00   3.256910E+01   2.873291E+01   6.023233E+01   7.881002E+01   2.245762E+01   3.905648E+01   8.819903E+01   3.921812E+01   4.233543E+01   2.533632E+01   7.316106E+01   1.811310E+01   5.677633E+01
   5.621436E+01   2.785482E+01   5.298669E+01   4.084722E+01   1.737487E+01   4.933689E+01   8.216683E+01   9.449700E+01   4.163183E+01   8.006231E+01   1.038566E+01   2.603341E+01   2.360740E+00   3.654159E+00   7.743894E+01   1.660508E+01   2.697556E+01   6.768420E+01   8.439899E+01   7.589758E+01   1.182359E-01   8.684373E+01   5.682511E+01   3.344505E+01   1.555616E+01
   9.757183E+01   3.096339E+01   1.667892E+01   9.469167E+01   8.496696E+01   4.109055E+01   3.294333E+01   6.516111E+01   5.629776E+01   1.673412E+01   7.760320E+01   2.858861E+01   8.072060E+01   6.708430E+01   3.061179E+01   9.428364E+01   6.784020E+01   7.545304E+01   9.261154E+01   4.973370E+01   5.961915E+00   1.009399E+01   7.729358E+01   6.640672E+01   4.516175E+01
   8.913141E+00   7.236814E+01   6.985525E+01   5.568989E+01   4.898455E+01   5.819520E+01   6.912745E+00   8.265535E+01   3.618875E+01   1.526763E+01   3.563822E+01   8.578067E+01   2.611003E+01   9.237572E+01   8.171992E+01   9.149349E+01   5.188794E+01   7.854037E+01   9.316836E+01   6.226084E+01   6.707199E+01   3.236111E+01   5.784077E+01   9.343087E+01   7.171069E+01
   4.961144E+01   3.697537E+01   5.105886E+01   2.204191E+01   8.141728E+01   7.833339E+01   1.296770E+01   3.118155E+01   4.065636E+00   6.230023E+01   7.079805E+01   6.360703E+00   4.129236E+01   2.380761E+01   9.687450E+01   4.571942E+01   6.250530E+01   6.539313E+00   3.006008E+01   8.428126E+01   2.178845E+01   7.887638E+01   7.353329E+00   7.621155E+01   8.831007E+01
   2.641999E+01   5.060016E+01   7.186912E+01   4.180330E+01   2.085320E+01   3.633828E+01   6.933196E+01   6.889758E+01   6.339498E+01   9.813818E+01   4.755032E+01   1.390543E+01   5.471482E+01   2.587524E+01   4.439102E+01   7.470609E+01   9.690954E+01   3.081280E+01   8.124553E+01   9.549170E+01   1.828483E+01   1.838871E+01   4.185344E+01   2.064958E+01   7.465946E+01
   7.180792E+01   2.731838E+01   7.569341E+01   5.713281E+01   8.705350E+01   1.181680E+01   5.874368E+00   7.228585E+01   3.607129E+01   1.785487E+01   8.080952E+00   8.531190E+01   9.968825E+01   9.448679E+01   4.309617E+01   3.669973E+01   5.737753E+01   2.479456E+01   2.874317E+01   7.656532E+00   8.062154E+01   9.576097E+01   7.505337E+01   6.994093E+01   9.012928E+01
   2.689022E+01   1.857132E+01   4.206901E+01   2.625238E+01   2.605054E+01   8.496526E+01   7.240642E+01   1.060515E+01   5.989984E+01   1.283576E+01   7.268447E+01   1.631816E+01   4.145459E+01   9.650064E+01   4.744793E+01   1.248646E+01   8.408214E+01   4.461404E+01   6.690768E+01   3.054015E+01   7.889066E+01   9.476894E+01   4.149271E+01   2.154646E+01   6.941540E+01
   6.807552E+01   8.050675E+01   1.100966E+01   1.920251E+01   2.478439E+01   9.564767E+01   2.893924E+01   8.992713E+01   9.360292E+01   8.187888E+01   2.451365E+01   3.233874E+01   5.906023E+01   8.488835E+01   4.732212E+01   7.663250E+01   8.320800E+01   5.792804E+01   7.298031E+01   1.969996E+01   5.026253E+01   2.923697E+01   9.206223E+01   5.621329E+01   2.989187E+01
   7.227536E+01   3.992135E+01   4.903131E+01   3.654454E+01   9.739348E+01   8.713361E+01   9.963218E+00   7.169154E+01   5.477412E+01   1.389533E+01   8.349227E+01   4.643088E+01   6.783637E+01   5.214559E+00   1.430879E+01   6.816377E+00   4.070424E+01   7.789778E+01   1.298615E+01   5.852864E+01   5.493004E+01   5.472644E+01   3.210277E+01   4.477987E+01   4.634477E+01
   5.811201E+01   3.919405E+01   2.228539E-01   6.189192E+01   2.516144E+01   6.431121E+01   2.298345E+01   6.705070E+00   9.943345E-01   5.395810E+00   8.079568E+01   7.916962E+01   9.014474E+01   7.279715E+01   2.416873E+01   8.063816E+01   7.430804E+01   5.430677E+01   2.655818E+01   4.795881E+01   7.238853E+01   9.212823E+01   3.602886E+01   5.878377E+01   5.489169E+01
   1.037356E+01   4.242046E+00   3.456911E+01   8.244788E+01   2.055061E+01   5.015871E+01   9.012091E+01   9.410488E+01   5.004177E+01   1.870025E+01   6.311761E+01   6.771954E+01   9.611534E+01   1.697975E+01   7.048014E+01   9.729051E+01   9.454546E+01   2.895124E+01   2.052441E+01   4.634692E+01   1.222236E+01   3.537078E+01   2.355255E+01   1.972203E+01   6.728304E+01
   1.796605E+00   6.138856E+01   4.491829E+01   6.991232E+00   8.187069E+01   6.513742E+01   5.310774E+01   8.541494E+01   7.255479E+01   8.729955E+01   3.162579E+01   7.130090E+01   7.758920E+01   6.276704E+01   1.936657E+01   4.515444E+01   9.179049E+01   4.581662E+01   6.373304E+01   1.813335E+01   9.199435E+01   5.618560E+01   6.447816E+01   2.791937E+01   4.159624E+01
   9.504377E+01   4.918151E+00   6.315414E+01   5.982795E+01   1.518149E+01   7.291418E+01   1.941991E+00   2.444428E+01   4.170784E+01   4.953746E+01   9.865321E+01   1.876424E+01   1.668495E+01   1.338976E+01   8.619225E+01   4.556243E+01   8.974924E+01   3.325999E+01   7.972961E+01   4.689176E+01   1.299028E+01   4.346362E+01   5.519690E+01   7.383762E+01   1.192402E+01
CONSTANT 0.1 HANI
INTERNAL               1  (25E15.6) -1 #vka layer 1                   
   3.037653E-02   7.588965E-02   7.809316E-02   1.710884E-03   3.365186E-02   2.725573E-02   1.356333E-03   7.846872E-02   9.396595E-02   5.413789E-02   7.238253E-02   9.084582E-05   5.901939E-02   4.693196E-02   8.629669E-02   2.813773E-02   1.600480E-02   7.622401E-02   8.583652E-02   3.835027E-02   9.554352E-02   1.977013E-02   6.325124E-02   2.890431E-02   9.553885E-02
   9.385740E-02   5.120013E-02   3.526561E-02   1.499918E-03   9.759287E-02   1.792437E-02   2.922530E-02   4.045495E-02   7.294678E-02   9.362819E-02   9.960830E-02   7.792205E-02   4.729768E-02   8.349463E-02   1.109684E-02   6.763236E-02   2.081443E-02   4.172938E-02   6.761413E-03   5.593973E-02   5.959965E-02   7.996882E-02   8.748344E-02   3.317524E-02   5.316943E-02
   3.425751E-02   7.158878E-02   7.894798E-02   2.870360E-02   7.840397E-04   1.742998E-02   8.653295E-02   3.202115E-02   3.705887E-02   6.416856E-04   3.373093E-02   5.745218E-02   5.023349E-02   8.021598E-02   4.417908E-02   9.946330E-02   8.796471E-03   9.885905E-02   6.941608E-03   6.440075E-02   9.618521E-02   8.241136E-02   1.378251E-02   7.486545E-02   8.485014E-02
   4.083532E-02   3.517849E-02   9.923553E-02   4.390200E-02   3.441834E-02   9.321183E-02   9.482957E-02   7.527959E-02   8.996516E-02   9.484558E-02   6.547218E-02   8.353508E-02   6.647391E-02   3.143001E-02   2.342841E-02   1.543074E-02   8.632684E-02   7.624919E-02   7.217277E-02   4.548429E-02   9.236720E-02   1.703307E-02   8.273640E-02   5.848019E-02   2.920486E-02
   8.270770E-02   4.581927E-02   7.298420E-02   5.429653E-03   7.189380E-02   4.933282E-02   5.610633E-02   7.070135E-02   7.133305E-02   7.858828E-03   4.091720E-02   9.854903E-02   6.566280E-02   6.278454E-02   4.029299E-02   6.676330E-02   4.534185E-02   4.692706E-02   8.538685E-02   4.337380E-02   4.017537E-02   8.091947E-02   4.628626E-02   7.768765E-02   9.553269E-02
   5.985837E-02   1.348150E-02   5.773715E-02   2.585475E-02   8.019395E-03   1.348668E-02   7.136893E-02   7.359777E-02   4.435302E-02   8.330213E-02   7.623582E-02   7.243810E-03   7.464989E-02   6.693081E-02   6.481659E-02   8.480089E-03   9.204233E-02   2.652470E-02   8.246166E-02   3.875158E-02   5.915771E-02   4.935222E-02   3.042307E-02   5.011879E-02   8.519151E-02
   9.142613E-02   9.807907E-02   4.643967E-02   5.803212E-02   9.667815E-02   2.265754E-02   3.918507E-02   2.164383E-02   1.631001E-02   1.557413E-02   7.173609E-02   6.207322E-02   4.597951E-02   2.151486E-02   8.249722E-03   2.557104E-02   7.892694E-02   8.091161E-02   9.664591E-02   5.198136E-02   4.963437E-02   5.653667E-02   3.104384E-02   3.564169E-02   5.067739E-03
   2.623940E-02   1.691759E-02   1.479351E-03   4.497223E-02   1.057184E-02   1.874791E-02   6.442306E-02   8.491685E-03   3.921352E-03   7.950156E-02   1.044052E-02   5.202893E-02   8.470480E-02   7.613588E-02   4.027608E-02   4.527421E-02   7.890844E-02   4.470536E-02   4.159739E-02   3.363615E-02   9.354100E-02   9.368514E-02   1.637869E-02   8.344000E-02   2.201223E-03
   9.329282E-02   8.600000E-02   5.775202E-02   5.792280E-02   1.527656E-02   4.364923E-02   9.741376E-02   6.763002E-02   3.951198E-02   7.560661E-02   1.083603E-02   6.784276E-02   3.484808E-02   5.305882E-02   5.374914E-02   8.559743E-02   6.180634E-02   2.216283E-03   9.460521E-02   4.765254E-02   5.124067E-02   9.409837E-02   5.687974E-02   6.893037E-02   5.755550E-02
   5.628449E-02   3.663404E-02   8.977009E-02   7.970998E-02   5.140099E-02   1.934843E-02   1.193742E-02   8.338564E-02   8.102772E-02   9.904056E-02   5.576046E-02   8.717994E-02   5.638510E-02   2.810489E-02   5.356841E-03   9.362013E-03   1.815202E-02   3.163522E-02   3.786237E-02   6.403034E-02   9.715007E-02   8.441186E-03   9.945122E-04   8.045096E-05   2.450436E-02
   1.356755E-02   7.587750E-02   5.513461E-02   3.409746E-02   5.985884E-02   6.113821E-02   3.639859E-02   5.971532E-02   2.711887E-02   2.611353E-03   8.837507E-02   8.721422E-02   9.681986E-02   9.792297E-02   6.691582E-02   8.613741E-02   6.617226E-02   6.148274E-02   9.363949E-02   5.269580E-02   2.985362E-02   8.705452E-02   1.477468E-02   2.372388E-02   9.348131E-02
   6.814383E-02   8.783799E-02   7.755471E-02   3.009353E-02   3.881416E-04   4.219947E-02   8.303124E-02   7.196374E-02   5.076305E-02   7.004188E-02   3.010120E-02   8.549306E-03   7.265300E-02   7.222556E-02   1.385794E-03   9.689097E-02   1.935074E-02   9.450339E-02   4.071987E-03   1.384053E-02   6.632179E-02   3.590535E-02   3.387374E-02   7.668345E-02   2.624773E-02
   7.734649E-02   4.382122E-02   4.500614E-02   2.340731E-02   9.422787E-02   7.139942E-03   1.443624E-02   5.821158E-02   6.961863E-02   3.740771E-03   5.258167E-04   2.766892E-02   1.483491E-03   6.516796E-02   1.782248E-02   8.739588E-03   1.508725E-02   5.086159E-02   8.449516E-02   4.884399E-02   5.732740E-02   5.950831E-02   3.721964E-02   2.253174E-02   7.085669E-03
   3.857633E-02   4.962283E-02   4.963446E-02   4.973771E-03   2.603633E-02   1.128150E-02   1.883175E-02   6.772988E-03   9.592731E-03   4.713870E-02   6.178695E-02   4.985749E-02   8.490650E-02   4.075364E-02   5.960787E-02   3.659952E-02   7.126033E-02   7.198101E-02   1.087385E-02   1.885919E-02   1.045170E-02   7.775297E-02   2.368993E-02   7.038776E-03   1.378182E-02
   2.463552E-02   2.469247E-02   1.330859E-02   8.146203E-02   1.837029E-02   6.191632E-02   5.895530E-02   8.796041E-02   4.353852E-02   7.295038E-02   7.972678E-02   4.869155E-02   2.514829E-02   1.160842E-02   9.532526E-03   3.660261E-02   8.002552E-02   8.461662E-02   1.700299E-02   4.740832E-02   5.649718E-02   1.912326E-02   4.476537E-02   5.387645E-02   8.031688E-02
   7.321918E-02   4.243864E-03   8.305340E-02   2.028938E-02   9.508073E-02   1.837301E-02   9.950894E-02   6.471933E-02   1.643714E-02   3.752100E-02   7.417208E-02   6.823682E-04   5.593237E-02   5.989033E-02   5.500576E-02   1.743504E-02   4.021052E-02   5.030222E-02   5.250945E-02   1.426282E-02   2.950669E-02   8.092156E-02   8.563031E-04   6.858824E-02   3.310998E-02
   1.014271E-02   9.485123E-02   1.127782E-02   9.807333E-02   1.092403E-02   3.363177E-03   6.783226E-02   1.824912E-02   5.207301E-03   5.643866E-02   2.030979E-02   2.599084E-03   5.883475E-02   5.800995E-02   7.870408E-02   6.849173E-02   5.243115E-02   3.386836E-02   6.517627E-02   4.973739E-02   9.050336E-02   4.509693E-02   4.124945E-02   1.992428E-02   7.599255E-02
   7.250209E-02   1.181497E-02   9.368312E-02   4.971184E-02   4.943873E-02   6.589933E-02   8.795035E-02   2.038517E-02   6.627557E-02   6.064190E-02   7.672776E-02   4.656779E-02   1.597768E-02   7.204714E-02   4.348765E-02   5.477816E-02   3.899894E-02   9.169278E-02   2.790564E-04   7.006983E-02   5.742713E-02   6.766672E-02   4.711385E-02   1.759847E-02   6.138498E-02
   5.486756E-02   4.820536E-02   3.585460E-02   2.548228E-02   2.118148E-02   4.923531E-02   3.781622E-02   7.618586E-02   1.700012E-02   6.953487E-02   2.081860E-03   9.306688E-02   9.206741E-02   3.605146E-02   4.321632E-02   3.276085E-02   6.085117E-02   4.560518E-02   7.489585E-02   2.429072E-02   9.682312E-02   2.745818E-02   1.024151E-02   4.047362E-02   7.023250E-02
   4.024568E-02   2.681049E-02   9.850812E-02   6.342297E-02   6.881597E-02   2.990032E-02   8.950783E-02   7.879847E-02   7.933264E-02   8.152902E-02   3.182589E-02   4.947744E-02   2.260874E-02   3.842825E-02   1.029716E-02   2.536412E-02   1.645622E-02   3.973710E-03   4.841957E-02   7.436405E-02   5.790343E-02   8.806027E-02   8.725322E-02   4.551364E-02   6.720439E-02
INTERNAL               1  (25E15.6) -1 #hk layer 2                    
   1.454769E+01   5.070408E+01   8.845093E+01   8.675832E+01   6.550542E+01   4.056287E+01   1.940953E+00   9.634614E+01   1.012483E+01   7.111242E+01   9.305116E+01   9.819444E+01   9.931413E+01   9.008708E+01   6.126458E+01   3.377064E+01   4.245238E+01   3.198165E+00   8.416122E+01   2.884487E+01   6.973158E+01   1.616985E+01   1.948449E+01   3.579218E+01   9.193293E+01
   3.310216E+01   1.875643E+01   7.426868E+01   5.132552E+01   8.960612E+01   8.539008E+01   3.597839E+01   5.978923E+01   2.455456E+01   3.066286E+01   9.995565E+01   8.640046E+01   2.758580E+01   1.519567E+01   9.423775E+01   2.509672E+00   2.147443E+01   9.539034E+01   1.562474E+01   6.919210E+01   6.404910E+01   3.898823E+01   7.013322E+01   3.940459E+00   5.181237E+01
   6.443479E+01   5.244995E+01   8.607708E+01   8.026780E+01   3.427309E+01   5.460643E+00   6.315434E+01   2.557619E+01   4.862333E+01   2.715743E+01   8.594088E+01   1.790285E+01   1.115503E+01   9.184696E+01   8.992792E+01   5.326720E+01   8.792388E+00   3.057769E+01   8.925345E+01   7.405861E+01   3.381115E+01   8.095693E+01   5.928718E+01   4.949674E+00   5.373528E+01
   2.176175E+01   2.086122E+00   5.335465E+01   6.643156E+01   9.409881E+01   5.199755E+01   9.734355E+01   7.907299E+01   9.525135E+01   6.266713E+01   2.358096E+01   2.518880E+01   8.720573E+01   5.203771E+00   7.297692E+00   6.020985E+01   3.129607E+01   3.273717E+01   4.489320E+01   6.865777E+01   4.312816E+01   3.118406E+01   5.192025E+01   4.842954E+01   1.581944E+01
   8.788165E+01   7.336013E+01   5.859712E+01   9.765485E+01   4.224163E+01   1.320135E+01   3.396921E+01   7.823792E+01   8.703008E+01   7.542962E+01   5.928087E+01   3.307919E+01   9.802350E+01   6.732671E+01   7.388615E+01   8.286574E+01   1.673620E+01   6.915244E+01   4.972342E+01   2.091515E+01   2.777761E+01   8.057841E+01   6.641656E+01   1.225162E+01   6.936811E+01
   8.415492E+00   2.324591E+01   5.619192E+01   8.739212E+01   4.426427E+01   5.177645E+01   1.440870E+01   4.640509E+01   2.006725E+01   4.346030E+01   2.874145E+01   3.098567E+01   4.863136E+01   7.391613E+01   2.072510E+01   2.845036E+01   8.102890E+01   9.980179E+01   8.708288E+01   5.634562E+01   6.917194E+01   7.822544E+01   9.189354E+01   1.711956E+01   5.520244E+01
   3.217006E+01   3.228030E+01   2.355549E+00   8.725890E+01   9.992986E+01   6.799798E+01   3.703373E+01   9.871523E+01   2.319331E+01   1.717235E+01   8.864290E+01   7.209905E+01   9.033103E+01   7.878680E+00   4.772612E+01   3.253437E+00   9.143372E+01   7.420599E+01   6.497023E-01   8.688229E+01   4.035527E+01   9.397173E+01   9.430058E+01   2.786659E+01   3.958643E+01
   1.509614E+01   7.591564E+01   1.476954E+01   6.246836E+01   6.631204E+01   8.928217E+01   2.905516E+01   9.088442E+01   8.443571E+01   6.870888E+01   9.183250E+01   2.204617E+01   4.706563E+01   8.283686E+01   4.491257E+01   4.349712E+01   4.526196E+01   5.137901E+01   9.069458E+01   6.352247E+00   5.148064E+01   9.669599E+01   2.791022E+01   3.125316E+01   2.942381E+01
   1.645521E+00   2.293367E+01   5.239988E+01   8.879158E+01   7.991211E+01   4.838175E+01   9.700449E+01   7.730054E+01   1.864209E+01   2.296968E+00   5.806474E+01   2.255104E+01   7.992705E+01   6.535874E+01   2.788037E+01   3.881546E+01   8.335480E+01   7.910596E+00   7.194820E+01   2.844409E+01   9.933257E+01   6.893520E+01   7.945732E+01   7.938446E+01   5.856089E+00
   7.060811E+01   6.006310E+01   6.683632E+01   6.993116E+01   5.701398E+01   6.808537E+01   5.514829E+01   6.010031E+01   8.731561E+01   1.501948E+01   1.208662E+01   1.721405E+01   4.000407E+01   2.745531E+01   9.006856E+01   2.750551E+00   9.852426E+01   2.127116E+00   6.335995E+01   8.160800E+01   4.575468E+01   3.298693E+01   2.456233E+01   3.586307E+01   5.827215E+01
   9.425227E+01   5.332744E+01   1.600167E+01   1.595739E+00   9.596140E+01   8.331380E+01   8.201492E+01   5.928289E+01   9.764450E+01   9.304340E+01   6.250677E+00   2.302783E+01   5.170379E+01   5.900453E+01   7.392590E+01   3.987827E+01   3.867537E+01   8.234136E+01   7.776564E+01   9.903658E+01   9.434991E+01   4.632098E+01   6.381608E+01   6.950903E+01   5.377322E+01
   2.694506E+01   9.569102E+01   8.842084E+00   9.355167E+01   3.257130E+01   7.504835E+01   8.097054E+01   8.463812E+01   4.416119E+01   8.934248E+01   4.325273E+01   1.314801E+01   9.632196E+01   9.329389E+01   3.492336E+00   5.141883E+01   6.770628E+01   5.101221E+01   5.538278E+01   7.536674E+01   3.951060E+01   2.896500E+01   5.815618E+01   4.015681E+01   7.619378E+00
   1.468547E+01   7.859771E+01   9.439898E+01   9.503948E+01   7.741652E+01   6.231303E+01   2.142042E+01   9.628669E+01   5.560659E+01   1.148634E+01   1.546375E+01   3.990488E+01   7.554471E+01   9.720312E+01   4.853235E+01   9.394343E+00   6.747982E+01   3.638423E+01   7.927150E+01   4.415519E+01   4.740070E+01   9.560509E+01   8.355358E+01   6.784486E+01   1.004306E+01
   5.755861E+01   1.222178E+01   1.273587E+01   2.302798E+00   8.295982E+01   5.185125E+00   2.616417E+01   3.014719E+01   8.929630E+01   2.314691E+01   5.687231E+01   2.986704E+01   3.505760E+01   4.884473E+01   5.356532E+01   9.546447E+01   2.884688E+01   4.747625E+01   2.168539E+01   8.709586E+01   7.315144E+01   3.329529E+01   6.794800E+00   6.110347E+01   8.602032E+01
   5.430922E+01   7.800548E+01   2.295419E+01   6.279176E+01   7.939718E-01   8.356669E+01   6.625497E-01   1.273252E+01   8.195222E+01   9.408469E-01   2.475859E+01   2.568966E+01   6.576901E+01   6.690670E+01   3.418061E+01   1.043789E+01   4.986432E+01   3.874385E+01   4.673308E+00   5.969437E+01   7.461223E+01   6.914491E+01   5.513267E+00   3.602625E+01   4.828323E+01
   5.570095E+01   5.563527E+01   3.502017E+01   6.441305E+01   3.763252E+01   9.587550E+01   9.576234E+01   6.062270E+01   7.878697E+00   9.272266E+01   5.705690E+01   5.917872E+01   7.777501E+01   8.959917E+01   3.420138E+01   9.817176E+01   7.906711E+01   3.765224E+01   1.326457E+01   7.804786E+01   3.084720E+01   4.791201E+01   2.409494E+01   1.187822E+01   3.032877E+00
   3.650418E+01   5.422625E+01   8.625109E+01   6.269529E+01   8.092684E+01   1.267016E+01   6.392730E+01   4.543597E+01   5.626878E+01   2.944055E+01   3.501258E+01   1.621485E+01   3.245654E+01   7.422764E+01   2.132538E+01   4.625758E+01   2.571667E+01   2.287458E+01   4.439608E+01   2.704399E+01   2.706342E+00   7.383730E+01   9.171816E+01   4.564633E+01   3.884529E+01
   7.662807E+01   4.594727E+01   3.973411E+01   2.283259E+01   9.610510E+00   4.403547E+01   8.030245E+01   2.034248E+01   6.310907E+01   4.078361E+00   7.423187E+01   3.644862E+01   4.259124E+00   1.920464E+01   3.493454E+00   5.874634E+01   2.068289E+01   1.081234E+01   1.155414E+01   4.887871E+01   9.801611E+01   8.068528E+01   5.865878E+01   1.608330E+00   2.869553E+01
   2.944955E+01   8.085604E+01   5.589322E+01   5.634364E+01   2.602002E+01   9.250996E+01   3.192431E+01   3.219545E+01   8.695863E+01   1.036591E+01   6.886029E+01   6.256238E+01   1.153351E+01   3.335290E+01   9.984955E+01   7.680351E+01   8.738427E+01   8.335738E+01   7.967743E+01   7.798701E+01   7.860172E+01   8.815442E+00   2.708285E+01   6.088420E+01   5.746716E+01
   9.199986E+01   5.056969E+01   7.951471E+01   9.203310E+01   4.979192E+00   1.320178E+01   5.617049E+01   9.296049E+01   8.002860E+01   7.730450E+01   9.597046E+00   8.155579E+01   3.323732E+01   8.297594E+01   4.963105E+01   3.637379E+01   2.211292E+01   5.443626E+01   3.641169E+01   2.957414E+01   8.559456E+01   5.925356E+01   4.556573E+01   1.629057E+01   8.544752E+01
CONSTANT 0.1 HANI
INTERNAL               1  (25E15.6) -1 #vka layer 2                   
   8.853502E-03   8.014753E-02   4.109882E-02   9.169226E-02   1.323655E-02   4.073661E-02   5.865890E-02   6.515582E-02   1.438885E-02   9.518652E-02   5.911589E-02   3.327857E-02   7.113888E-02   8.307914E-02   9.919835E-02   2.440214E-02   4.314502E-02   1.610815E-02   4.471255E-02   9.179835E-03   6.511437E-02   8.248094E-02   9.126727E-02   5.203972E-02   2.435041E-02
   3.202245E-02   2.581230E-02   3.640598E-02   6.330942E-02   8.505420E-02   2.891869E-02   6.763627E-02   6.575074E-02   1.985917E-02   8.347487E-02   6.379335E-02   8.648679E-02   3.327887E-02   5.899234E-02   7.700913E-02   9.146755E-02   6.054578E-03   9.211189E-02   2.957610E-02   2.473257E-02   7.341802E-02   5.664122E-02   9.594881E-02   1.900732E-02   4.764516E-02
   4.819473E-02   4.819221E-02   5.309713E-02   3.864666E-02   1.953841E-02   2.965859E-02   2.373775E-02   9.857620E-02   5.498812E-02   4.806358E-02   9.854827E-02   5.046110E-03   6.740566E-02   4.027794E-02   1.766881E-02   7.397071E-02   2.748030E-02   5.950735E-02   4.569070E-02   8.112596E-02   8.451853E-02   8.842374E-02   3.160050E-02   1.926084E-02   1.767045E-02
   9.298632E-02   5.296926E-03   1.930312E-02   9.182335E-02   1.885584E-02   7.619750E-02   1.959239E-02   5.872366E-02   1.613435E-02   1.085215E-02   7.929143E-02   8.321613E-02   7.260732E-02   3.255913E-02   2.126030E-02   9.914417E-02   7.719172E-02   9.775971E-02   3.499798E-02   6.713641E-02   9.611908E-02   3.919145E-02   6.258835E-02   2.715843E-02   5.464128E-02
   8.559652E-02   6.255452E-02   5.266898E-02   7.009458E-03   7.935658E-02   7.285513E-03   4.560125E-02   9.934825E-02   7.640559E-02   9.932858E-02   6.991731E-02   2.696143E-02   1.118256E-02   2.366571E-02   9.459618E-02   7.121502E-02   5.390808E-02   4.360865E-02   2.196940E-02   1.171423E-02   3.818000E-02   5.600017E-03   6.550445E-02   8.871237E-03   9.206406E-02
   8.912008E-02   2.312726E-02   3.239693E-02   5.218269E-02   9.813925E-03   8.108646E-02   8.831578E-02   6.378180E-02   8.622085E-02   7.392168E-03   1.164831E-02   1.810245E-02   9.723872E-02   6.027903E-02   9.964835E-02   3.547312E-03   8.608002E-02   3.396230E-02   8.991322E-02   6.318893E-02   4.595533E-02   7.033569E-02   9.855933E-03   8.483972E-02   4.276099E-02
   8.656292E-02   3.021925E-02   5.209948E-02   3.319168E-02   8.244170E-02   2.715963E-02   1.154470E-02   1.365429E-02   1.299004E-03   3.799025E-02   1.919197E-02   5.970049E-02   5.773317E-02   3.237462E-02   4.344154E-02   4.874854E-02   4.198434E-02   8.986261E-02   3.832172E-02   7.454579E-02   9.432179E-03   2.115233E-02   2.895095E-02   7.663023E-02   2.025151E-02
   7.213770E-02   4.068860E-02   9.386203E-02   4.808982E-02   5.935642E-02   1.167840E-02   4.698962E-03   2.176080E-02   8.947328E-02   1.625203E-02   1.149365E-03   5.647569E-03   3.312125E-02   9.881791E-02   8.927109E-02   6.565943E-02   7.305107E-02   1.495790E-02   6.368614E-02   8.491918E-02   9.775476E-02   9.945862E-02   6.798653E-02   2.447322E-02   8.744911E-02
   1.785270E-02   9.535021E-02   2.493842E-02   6.759296E-02   2.249048E-02   1.211640E-02   9.082239E-02   1.067516E-02   1.318298E-02   8.760942E-02   9.981646E-02   1.725934E-02   4.328452E-03   2.377506E-02   9.467696E-02   3.611893E-02   6.202229E-02   8.246483E-02   6.780270E-02   3.130054E-02   1.274549E-02   7.894115E-02   8.967627E-03   8.519017E-02   2.689885E-02
   1.285525E-04   5.548212E-02   3.211971E-02   5.859545E-02   2.094875E-02   6.802450E-02   9.089001E-02   4.695355E-03   9.047349E-02   1.464837E-02   2.444887E-02   7.345650E-02   1.456651E-02   8.273150E-03   1.819828E-02   2.753159E-02   5.817412E-02   5.725332E-02   4.332938E-02   1.281605E-02   8.950573E-02   9.580724E-02   6.234377E-02   3.622738E-02   7.460936E-02
   2.311028E-02   1.726777E-02   4.026437E-03   9.198891E-02   7.738418E-02   9.701333E-02   6.147959E-02   7.275766E-02   4.316454E-02   7.996777E-02   9.227017E-02   1.223876E-02   1.227335E-02   5.155538E-02   2.677889E-02   3.644571E-03   6.904368E-02   9.396321E-02   1.430745E-02   3.858955E-02   3.495785E-02   8.481284E-02   6.491689E-02   5.952222E-02   1.552302E-02
   8.343912E-02   9.163956E-02   7.415962E-02   4.461299E-03   9.210585E-02   9.327791E-02   8.347694E-02   2.535400E-02   2.211595E-02   7.072279E-02   1.640197E-02   2.516442E-02   3.481502E-02   7.664590E-02   5.416812E-02   4.520204E-02   2.945382E-02   7.963680E-02   1.291494E-02   2.559645E-02   2.728030E-02   7.441481E-02   3.847063E-03   9.166024E-02   3.352927E-02
   9.635057E-02   4.447774E-02   3.162608E-02   2.219278E-02   3.028409E-02   8.433042E-02   5.222685E-03   1.703863E-03   5.389325E-02   4.166824E-02   8.275524E-02   2.577006E-03   5.953666E-02   8.943170E-02   4.731001E-03   8.886959E-02   1.562841E-02   2.227525E-02   3.713857E-02   2.111462E-02   3.517415E-02   3.079522E-02   2.482160E-02   3.829271E-02   5.665439E-03
   5.753440E-02   5.203535E-02   2.666400E-02   4.820629E-02   4.310169E-02   9.881370E-02   3.945795E-03   6.645984E-03   1.395431E-02   5.499277E-02   3.996639E-02   1.608233E-02   9.287116E-02   2.594633E-02   3.633248E-02   1.820794E-02   9.704022E-02   4.652281E-02   5.028106E-02   7.435863E-02   9.425092E-02   1.118661E-02   9.341494E-02   4.463308E-02   5.596943E-02
   1.457121E-02   6.613608E-02   3.393674E-02   4.003895E-02   9.150060E-02   9.553839E-02   1.189841E-02   5.042610E-02   1.991360E-03   8.190658E-02   6.915787E-02   5.315373E-02   5.230294E-02   3.651126E-02   6.058669E-02   5.718060E-02   1.837310E-02   1.178536E-02   4.475713E-02   1.577957E-02   7.474387E-02   9.611809E-03   6.478375E-02   2.649955E-02   6.863147E-02
   1.576719E-02   8.145550E-02   6.362663E-02   2.221507E-02   1.032312E-02   8.442809E-02   3.621774E-02   9.130463E-02   2.744870E-03   1.472527E-02   5.212180E-02   2.232579E-02   8.703568E-02   1.566207E-03   4.341055E-02   5.403058E-02   6.420029E-02   1.933423E-02   4.080606E-02   3.621050E-02   6.545968E-03   5.352995E-02   1.072896E-02   8.313326E-02   5.046858E-02
   8.729775E-02   1.980102E-02   4.793353E-03   3.002869E-02   4.076736E-02   3.915508E-02   2.305813E-02   6.373796E-02   7.709165E-03   4.496429E-02   2.463138E-02   7.871933E-02   7.384732E-02   9.250085E-02   8.929604E-02   1.715749E-02   3.254163E-02   5.513531E-02   3.922701E-02   5.256207E-02   1.499972E-02   7.022938E-03   1.621218E-02   6.781553E-02   1.766698E-02
   2.234354E-02   7.491758E-02   3.522674E-02   7.311615E-02   4.563990E-02   4.981184E-02   9.506327E-02   4.575147E-02   3.657571E-02   1.087741E-02   2.104275E-02   5.692893E-02   3.326309E-02   7.263924E-03   9.612349E-02   3.474701E-02   6.282093E-02   3.048043E-02   7.292054E-02   5.509778E-02   3.262752E-02   3.905957E-02   1.480110E-02   8.801997E-02   2.909310E-02