# Discretization file for MODFLOW, generated by Flopy.
         5        20        25         1         4         2
  0  0  0  0  0
CONSTANT    1.500000E+02                           #delr                          
CONSTANT    2.050000E+02                           #delc                          
INTERNAL               1  (25E15.6) -1 #model_top                     
   1.041104E+02   1.040107E+02   1.041272E+02   1.040017E+02   1.046196E+02   1.042007E+02   1.045312E+02   1.044968E+02   1.042005E+02   1.042293E+02   1.042766E+02   1.049281E+02   1.041814E+02   1.042115E+02   1.045482E+02   1.047901E+02   1.046176E+02   1.049603E+02   1.043160E+02   1.047192E+02   1.047051E+02   1.041293E+02   1.049075E+02   1.042114E+02   1.042941E+02
   1.046378E+02   1.040764E+02   1.048126E+02   1.043985E+02   1.041709E+02   1.043954E+02   1.042453E+02   1.041460E+02   1.044544E+02   1.041051E+02   1.046079E+02   1.048204E+02   1.040477E+02   1.045440E+02   1.047022E+02   1.045411E+02   1.047816E+02   1.046274E+02   1.042456E+02   1.046603E+02   1.045718E+02   1.043427E+02   1.043663E+02   1.048363E+02   1.049039E+02
   1.042347E+02   1.049171E+02   1.047489E+02   1.045141E+02   1.040656E+02   1.045293E+02   1.049087E+02   1.046990E+02   1.042015E+02   1.042472E+02   1.045320E+02   1.041214E+02   1.049852E+02   1.044920E+02   1.044679E+02   1.040148E+02   1.046480E+02   1.047139E+02   1.042066E+02   1.046471E+02   1.045927E+02   1.046208E+02   1.049920E+02   1.046375E+02   1.043610E+02
   1.049684E+02   1.044507E+02   1.041812E+02   1.045127E+02   1.047558E+02   1.048162E+02   1.041903E+02   1.040372E+02   1.042879E+02   1.045740E+02   1.044703E+02   1.045351E+02   1.048701E+02   1.040366E+02   1.048779E+02   1.042707E+02   1.046128E+02   1.048068E+02   1.044746E+02   1.042282E+02   1.048049E+02   1.044945E+02   1.041895E+02   1.043577E+02   1.047755E+02
   1.049957E+02   1.049569E+02   1.040726E+02   1.045030E+02   1.047028E+02   1.048444E+02   1.046318E+02   1.041678E+02   1.047431E+02   1.040466E+02   1.046289E+02   1.040204E+02   1.040905E+02   1.045192E+02   1.044844E+02   1.049996E+02   1.049310E+02   1.044739E+02   1.040631E+02   1.046751E+02   1.045650E+02   1.044032E+02   1.047052E+02   1.048826E+02   1.045988E+02
   1.041255E+02   1.049486E+02   1.048759E+02   1.047219E+02   1.049750E+02   1.046123E+02   1.046924E+02   1.044081E+02   1.049623E+02   1.048792E+02   1.040668E+02   1.047411E+02   1.041213E+02   1.041265E+02   1.047306E+02   1.045768E+02   1.047302E+02   1.049189E+02   1.044462E+02   1.045066E+02   1.047162E+02   1.043515E+02   1.048507E+02   1.045036E+02   1.043248E+02
   1.044637E+02   1.047530E+02   1.041837E+02   1.043389E+02   1.041196E+02   1.042082E+02   1.041362E+02   1.042330E+02   1.048351E+02   1.049529E+02   1.043318E+02   1.047845E+02   1.049928E+02   1.043253E+02   1.042689E+02   1.042941E+02   1.044570E+02   1.044885E+02   1.044218E+02   1.046607E+02   1.047724E+02   1.043456E+02   1.041507E+02   1.049548E+02   1.049733E+02
   1.042474E+02   1.048836E+02   1.045853E+02   1.043768E+02   1.046858E+02   1.041993E+02   1.043568E+02   1.049292E+02   1.049376E+02   1.043603E+02   1.041818E+02   1.041292E+02   1.045542E+02   1.044043E+02   1.041628E+02   1.048176E+02   1.047054E+02   1.045835E+02   1.045359E+02   1.040420E+02   1.044608E+02   1.044603E+02   1.047174E+02   1.041604E+02   1.040431E+02
   1.044276E+02   1.043180E+02   1.042016E+02   1.049189E+02   1.043802E+02   1.046155E+02   1.047188E+02   1.042555E+02   1.048375E+02   1.046980E+02   1.042625E+02   1.045306E+02   1.048747E+02   1.043852E+02   1.049936E+02   1.048036E+02   1.043021E+02   1.042212E+02   1.041773E+02   1.048170E+02   1.047812E+02   1.043655E+02   1.041266E+02   1.047625E+02   1.040971E+02
   1.044029E+02   1.047770E+02   1.042009E+02   1.046400E+02   1.048510E+02   1.041223E+02   1.049254E+02   1.044776E+02   1.048313E+02   1.047337E+02   1.049599E+02   1.049111E+02   1.047583E+02   1.043593E+02   1.049180E+02   1.042015E+02   1.045432E+02   1.046350E+02   1.046317E+02   1.046538E+02   1.048886E+02   1.041067E+02   1.046954E+02   1.045051E+02   1.042926E+02
   1.047638E+02   1.049239E+02   1.046087E+02   1.040499E+02   1.049762E+02   1.049283E+02   1.044795E+02   1.049628E+02   1.047188E+02   1.043046E+02   1.046912E+02   1.045971E+02   1.040518E+02   1.043948E+02   1.047769E+02   1.042435E+02   1.045217E+02   1.045879E+02   1.041034E+02   1.040280E+02   1.043208E+02   1.040626E+02   1.044872E+02   1.041871E+02   1.043286E+02
   1.048770E+02   1.044104E+02   1.046321E+02   1.046280E+02   1.042541E+02   1.045297E+02   1.040870E+02   1.044727E+02   1.045129E+02   1.049934E+02   1.042452E+02   1.041099E+02   1.041335E+02   1.040076E+02   1.045233E+02   1.047744E+02   1.046767E+02   1.049346E+02   1.044201E+02   1.048382E+02   1.043206E+02   1.049731E+02   1.045418E+02   1.045612E+02   1.042796E+02
   1.040924E+02   1.048536E+02   1.046297E+02   1.042847E+02   1.049280E+02   1.048433E+02   1.042570E+02   1.048266E+02   1.045609E+02   1.047532E+02   1.040984E+02   1.041993E+02   1.044448E+02   1.043812E+02   1.042063E+02   1.044287E+02   1.044233E+02   1.044351E+02   1.044164E+02   1.046154E+02   1.042020E+02   1.040700E+02   1.043061E+02   1.048596E+02   1.041328E+02
   1.043605E+02   1.047114E+02   1.040899E+02   1.047328E+02   1.044973E+02   1.041501E+02   1.045107E+02   1.049374E+02   1.044113E+02   1.043380E+02   1.049062E+02   1.046174E+02   1.047015E+02   1.042446E+02   1.041256E+02   1.044687E+02   1.040008E+02   1.041586E+02   1.047646E+02   1.046516E+02   1.040953E+02   1.047715E+02   1.046163E+02   1.047886E+02   1.048332E+02
   1.048862E+02   1.043400E+02   1.048444E+02   1.049278E+02   1.044811E+02   1.045055E+02   1.041848E+02   1.040325E+02   1.040083E+02   1.047875E+02   1.049080E+02   1.047555E+02   1.042394E+02   1.043967E+02   1.046524E+02   1.048929E+02   1.041592E+02   1.042713E+02   1.046886E+02   1.049670E+02   1.044600E+02   1.049916E+02   1.045411E+02   1.049720E+02   1.044140E+02
   1.049820E+02   1.041952E+02   1.047643E+02   1.042672E+02   1.040827E+02   1.046067E+02   1.044527E+02   1.049790E+02   1.040356E+02   1.040568E+02   1.043109E+02   1.045406E+02   1.047561E+02   1.046847E+02   1.047212E+02   1.048977E+02   1.043869E+02   1.040772E+02   1.041081E+02   1.047716E+02   1.044853E+02   1.047576E+02   1.048369E+02   1.041962E+02   1.049719E+02
   1.048241E+02   1.047057E+02   1.041545E+02   1.048284E+02   1.047258E+02   1.048881E+02   1.048677E+02   1.040750E+02   1.048759E+02   1.048059E+02   1.040113E+02   1.046666E+02   1.041303E+02   1.043872E+02   1.045257E+02   1.047587E+02   1.048836E+02   1.043696E+02   1.049126E+02   1.045584E+02   1.044291E+02   1.046359E+02   1.048181E+02   1.043168E+02   1.049540E+02
   1.046843E+02   1.042685E+02   1.043525E+02   1.049553E+02   1.046359E+02   1.040282E+02   1.043168E+02   1.042756E+02   1.040898E+02   1.042239E+02   1.042376E+02   1.045642E+02   1.043780E+02   1.044551E+02   1.041519E+02   1.045698E+02   1.041637E+02   1.041870E+02   1.047593E+02   1.042059E+02   1.044696E+02   1.042381E+02   1.046608E+02   1.047609E+02   1.047057E+02
   1.042904E+02   1.049281E+02   1.045826E+02   1.048444E+02   1.048400E+02   1.046881E+02   1.045090E+02   1.041998E+02   1.049953E+02   1.042179E+02   1.043799E+02   1.046340E+02   1.049555E+02   1.047080E+02   1.041350E+02   1.045229E+02   1.048148E+02   1.044019E+02   1.047038E+02   1.040857E+02   1.042624E+02   1.041581E+02   1.047329E+02   1.047255E+02   1.049324E+02
   1.042591E+02   1.044288E+02   1.043924E+02   1.044175E+02   1.046311E+02   1.042479E+02   1.043014E+02   1.046867E+02   1.048948E+02   1.044795E+02   1.049434E+02   1.043658E+02   1.040608E+02   1.046728E+02   1.043030E+02   1.040666E+02   1.048134E+02   1.042177E+02   1.046349E+02   1.046603E+02   1.040675E+02   1.040268E+02   1.048298E+02   1.042932E+02   1.046287E+02
INTERNAL               1  (25E15.6) -1 #botm layer 1                  
   9.304234E+01   9.328905E+01   9.410601E+01   9.271271E+01   9.276950E+01   9.336842E+01   9.261677E+01   9.405334E+01   9.249016E+01   9.252077E+01   9.360755E+01   9.341281E+01   9.239748E+01   9.269069E+01   9.273595E+01   9.386007E+01   9.424644E+01   9.338657E+01   9.356385E+01   9.319320E+01   9.341077E+01   9.286045E+01   9.406888E+01   9.278683E+01   9.362032E+01
   9.383193E+01   9.364849E+01   9.351243E+01   9.429613E+01   9.282458E+01   9.433798E+01   9.422132E+01   9.312964E+01   9.271865E+01   9.359379E+01   9.450010E+01   9.384296E+01   9.316555E+01   9.362600E+01   9.430387E+01   9.278977E+01   9.288285E+01   9.461452E+01   9.234795E+01   9.348344E+01   9.287772E+01   9.328973E+01   9.314992E+01   9.375690E+01   9.340881E+01
   9.402624E+01   9.405067E+01   9.353322E+01   9.345692E+01   9.276893E+01   9.382745E+01   9.307928E+01   9.393149E+01   9.283185E+01   9.272558E+01   9.365587E+01   9.358132E+01   9.331377E+01   9.281274E+01   9.374122E+01   9.243798E+01   9.439071E+01   9.438244E+01   9.274860E+01   9.376468E+01   9.327759E+01   9.316740E+01   9.339838E+01   9.450446E+01   9.433212E+01
   9.360130E+01   9.288400E+01   9.320904E+01   9.447220E+01   9.324803E+01   9.416225E+01   9.227390E+01   9.211850E+01   9.397513E+01   9.266046E+01   9.283789E+01   9.412576E+01   9.414998E+01   9.384746E+01   9.344866E+01   9.238710E+01   9.405317E+01   9.468835E+01   9.347926E+01   9.395506E+01   9.479330E+01   9.393512E+01   9.388230E+01   9.252531E+01   9.397813E+01
   9.431622E+01   9.296642E+01   9.299223E+01   9.334315E+01   9.337360E+01   9.358915E+01   9.318385E+01   9.241013E+01   9.319817E+01   9.343923E+01   9.327061E+01   9.319726E+01   9.299475E+01   9.392278E+01   9.321536E+01   9.394154E+01   9.476075E+01   9.312830E+01   9.348261E+01   9.282993E+01   9.284141E+01   9.252635E+01   9.417007E+01   9.303329E+01   9.367846E+01
   9.314777E+01   9.329210E+01   9.305083E+01   9.397314E+01   9.456087E+01   9.296412E+01   9.270165E+01   9.360480E+01   9.462745E+01   9.319667E+01   9.402787E+01   9.366548E+01   9.327556E+01   9.338953E+01   9.331167E+01   9.451407E+01   9.353444E+01   9.432198E+01   9.438129E+01   9.390731E+01   9.342994E+01   9.427366E+01   9.417521E+01   9.254112E+01   9.343317E+01
   9.353874E+01   9.411649E+01   9.333074E+01   9.420822E+01   9.278973E+01   9.278428E+01   9.344136E+01   9.266373E+01   9.383940E+01   9.448868E+01   9.313666E+01   9.359491E+01   9.451173E+01   9.263063E+01   9.418256E+01   9.377846E+01   9.248653E+01   9.405521E+01   9.276537E+01   9.357113E+01   9.457661E+01   9.372961E+01   9.287624E+01   9.323539E+01   9.396500E+01
   9.256766E+01   9.478394E+01   9.400186E+01   9.274612E+01   9.406089E+01   9.404520E+01   9.326641E+01   9.373513E+01   9.413800E+01   9.237274E+01   9.253933E+01   9.384962E+01   9.389640E+01   9.267504E+01   9.399487E+01   9.343233E+01   9.406341E+01   9.330831E+01   9.448383E+01   9.310968E+01   9.343240E+01   9.313081E+01   9.359525E+01   9.410232E+01   9.240969E+01
   9.426547E+01   9.343757E+01   9.294655E+01   9.471331E+01   9.347727E+01   9.344283E+01   9.395976E+01   9.265957E+01   9.425252E+01   9.446017E+01   9.397546E+01   9.443814E+01   9.454276E+01   9.282194E+01   9.380231E+01   9.414965E+01   9.414000E+01   9.261185E+01   9.243031E+01   9.472795E+01   9.447907E+01   9.254156E+01   9.337408E+01   9.373051E+01   9.238827E+01
   9.247088E+01   9.288198E+01   9.286395E+01   9.455402E+01   9.310484E+01   9.239865E+01   9.467558E+01   9.433498E+01   9.315156E+01   9.353557E+01   9.453280E+01   9.482594E+01   9.371306E+01   9.382423E+01   9.404755E+01   9.235113E+01   9.263374E+01   9.274403E+01   9.445290E+01   9.397900E+01   9.357864E+01   9.244781E+01   9.344698E+01   9.283084E+01   9.256334E+01
   9.324664E+01   9.433868E+01   9.269065E+01   9.249566E+01   9.323325E+01   9.361827E+01   9.336655E+01   9.368874E+01   9.381146E+01   9.366433E+01   9.421806E+01   9.414579E+01   9.281801E+01   9.289967E+01   9.412457E+01   9.364604E+01   9.354276E+01   9.274092E+01   9.344327E+01   9.342445E+01   9.381934E+01   9.300443E+01   9.424272E+01   9.345120E+01   9.240901E+01
   9.453406E+01   9.263451E+01   9.418611E+01   9.407830E+01   9.416819E+01   9.361683E+01   9.281922E+01   9.274737E+01   9.312010E+01   9.371886E+01   9.337260E+01   9.237067E+01   9.265077E+01   9.219399E+01   9.429064E+01   9.450526E+01   9.286552E+01   9.425852E+01   9.311880E+01   9.305547E+01   9.373753E+01   9.314850E+01   9.302714E+01   9.288743E+01   9.303862E+01
   9.370802E+01   9.353501E+01   9.428811E+01   9.404716E+01   9.381625E+01   9.317461E+01   9.236870E+01   9.445494E+01   9.377535E+01   9.388455E+01   9.317437E+01   9.295075E+01   9.322296E+01   9.248290E+01   9.223929E+01   9.257401E+01   9.434445E+01   9.412947E+01   9.342160E+01   9.440618E+01   9.333961E+01   9.319057E+01   9.266542E+01   9.359332E+01   9.352648E+01
   9.337411E+01   9.460126E+01   9.406085E+01   9.374299E+01   9.445436E+01   9.286368E+01   9.330183E+01   9.437562E+01   9.408990E+01   9.320885E+01   9.346013E+01   9.284254E+01   9.431370E+01   9.408269E+01   9.256052E+01   9.293992E+01   9.299279E+01   9.385622E+01   9.468018E+01   9.419129E+01   9.328590E+01   9.359077E+01   9.274055E+01   9.477704E+01   9.317103E+01
   9.430563E+01   9.250437E+01   9.309461E+01   9.380858E+01   9.265501E+01   9.363833E+01   9.230801E+01   9.325648E+01   9.296193E+01   9.295034E+01   9.368920E+01   9.458747E+01   9.334601E+01   9.428630E+01   9.332927E+01   9.431989E+01   9.273227E+01   9.255347E+01   9.361185E+01   9.366503E+01   9.321958E+01   9.308559E+01   9.310677E+01   9.312984E+01   9.249650E+01
   9.308183E+01   9.248646E+01   9.340137E+01   9.248922E+01   9.315424E+01   9.276641E+01   9.261973E+01   9.366795E+01   9.231792E+01   9.405042E+01   9.258882E+01   9.353885E+01   9.310117E+01   9.466241E+01   9.356735E+01   9.361517E+01   9.363292E+01   9.267621E+01   9.269704E+01   9.381683E+01   9.290346E+01   9.432579E+01   9.342947E+01   9.311241E+01   9.471669E+01
   9.430243E+01   9.322897E+01   9.223976E+01   9.360970E+01   9.318733E+01   9.403062E+01   9.398816E+01   9.286689E+01   9.384562E+01   9.370698E+01   9.338082E+01   9.406442E+01   9.218322E+01   9.269674E+01   9.355866E+01   9.424178E+01   9.437395E+01   9.418398E+01   9.418003E+01   9.293170E+01   9.260159E+01   9.317323E+01   9.445159E+01   9.407754E+01   9.481212E+01
   9.379617E+01   9.360040E+01   9.273927E+01   9.330650E+01   9.395043E+01   9.387142E+01   9.237784E+01   9.352602E+01   9.231255E+01   9.415834E+01   9.313015E+01   9.360937E+01   9.296925E+01   9.423850E+01   9.371898E+01   9.384953E+01   9.355653E+01   9.369235E+01   9.356515E+01   9.289463E+01   9.440936E+01   9.322995E+01   9.331417E+01   9.462073E+01   9.430568E+01
   9.333928E+01   9.338605E+01   9.269936E+01   9.404631E+01   9.350094E+01   9.298572E+01   9.367862E+01   9.347556E+01   9.384482E+01   9.328333E+01   9.247322E+01   9.269932E+01   9.322226E+01   9.379827E+01   9.261179E+01   9.286610E+01   9.376074E+01   9.353815E+01   9.341799E+01   9.269519E+01   9.231180E+01   9.298132E+01   9.388412E+01   9.316429E+01   9.385824E+01
   9.305393E+01   9.255260E+01   9.388006E+01   9.318552E+01   9.373822E+01   9.270281E+01   9.325392E+01   9.453771E+01   9.436702E+01   9.264780E+01   9.349241E+01   9.362807E+01   9.211864E+01   9.456616E+01   9.306082E+01   9.381612E+01   9.476050E+01   9.410345E+01   9.326337E+01   9.387547E+01   9.248060E+01   9.396033E+01   9.362759E+01   9.247281E+01   9.341071E+01
INTERNAL               1  (25E15.6) -1 #botm layer 2                  
   8.270496E+01   8.196502E+01   8.371983E+01   8.104665E+01   8.253342E+01   8.167113E+01   8.148717E+01   8.358656E+01   8.200352E+01   8.240540E+01   8.188445E+01   8.288235E+01   8.148295E+01   8.237031E+01   8.245789E+01   8.261133E+01   8.406089E+01   8.234042E+01   8.273453E+01   8.205768E+01   8.219323E+01   8.274236E+01   8.374438E+01   8.122186E+01   8.255523E+01
   8.217284E+01   8.252506E+01   8.307616E+01   8.268829E+01   8.172287E+01   8.305338E+01   8.262257E+01   8.278889E+01   8.093805E+01   8.318914E+01   8.430801E+01   8.319263E+01   8.144282E+01   8.348064E+01   8.427653E+01   8.115108E+01   8.213834E+01   8.430264E+01   8.081261E+01   8.257092E+01   8.235160E+01   8.284293E+01   8.185242E+01   8.211165E+01   8.188377E+01
   8.333688E+01   8.304452E+01   8.187135E+01   8.202240E+01   8.116450E+01   8.315487E+01   8.277428E+01   8.195911E+01   8.242050E+01   8.107633E+01   8.215337E+01   8.308247E+01   8.196448E+01   8.127708E+01   8.278813E+01   8.118524E+01   8.307796E+01   8.422192E+01   8.161832E+01   8.210104E+01   8.254078E+01   8.291983E+01   8.282202E+01   8.323337E+01   8.319978E+01
   8.306007E+01   8.169959E+01   8.300648E+01   8.307066E+01   8.314925E+01   8.369336E+01   8.132695E+01   8.137386E+01   8.380843E+01   8.246905E+01   8.140174E+01   8.212739E+01   8.381271E+01   8.368062E+01   8.210505E+01   8.154704E+01   8.290919E+01   8.325891E+01   8.268964E+01   8.225552E+01   8.431136E+01   8.271651E+01   8.358083E+01   8.248029E+01   8.215569E+01
   8.242766E+01   8.251401E+01   8.136906E+01   8.328534E+01   8.330424E+01   8.177354E+01   8.262153E+01   8.232681E+01   8.159080E+01   8.293036E+01   8.141470E+01   8.223789E+01   8.283358E+01   8.374108E+01   8.230183E+01   8.230390E+01   8.304182E+01   8.254436E+01   8.227027E+01   8.097297E+01   8.242792E+01   8.174612E+01   8.395330E+01   8.236980E+01   8.183801E+01
   8.174405E+01   8.244339E+01   8.123833E+01   8.203828E+01   8.411111E+01   8.221693E+01   8.112002E+01   8.347236E+01   8.289011E+01   8.234384E+01   8.255492E+01   8.333609E+01   8.210644E+01   8.165125E+01   8.247181E+01   8.259263E+01   8.266763E+01   8.285935E+01   8.351514E+01   8.342181E+01   8.328210E+01   8.391830E+01   8.350238E+01   8.158399E+01   8.313620E+01
   8.213882E+01   8.398460E+01   8.188215E+01   8.320292E+01   8.244802E+01   8.097236E+01   8.235613E+01   8.174976E+01   8.270917E+01   8.308456E+01   8.142704E+01   8.283566E+01   8.267501E+01   8.205637E+01   8.252587E+01   8.205624E+01   8.180297E+01   8.393632E+01   8.188052E+01   8.353649E+01   8.416146E+01   8.312182E+01   8.208421E+01   8.218533E+01   8.218606E+01
   8.058220E+01   8.402323E+01   8.232911E+01   8.168007E+01   8.286324E+01   8.264505E+01   8.298471E+01   8.285637E+01   8.385161E+01   8.180750E+01   8.245051E+01   8.213727E+01   8.252843E+01   8.155334E+01   8.370133E+01   8.333891E+01   8.239420E+01   8.230024E+01   8.404741E+01   8.241806E+01   8.285619E+01   8.117345E+01   8.255833E+01   8.375684E+01   8.114049E+01
   8.279509E+01   8.199641E+01   8.110558E+01   8.444237E+01   8.213294E+01   8.296213E+01   8.348682E+01   8.168841E+01   8.298811E+01   8.249851E+01   8.236617E+01   8.306094E+01   8.281685E+01   8.278452E+01   8.355202E+01   8.303522E+01   8.329726E+01   8.149358E+01   8.135072E+01   8.312935E+01   8.249397E+01   8.115748E+01   8.332772E+01   8.173906E+01   8.203520E+01
   8.191940E+01   8.238294E+01   8.094955E+01   8.264506E+01   8.183864E+01   8.040711E+01   8.379177E+01   8.304216E+01   8.286825E+01   8.213834E+01   8.356188E+01   8.426579E+01   8.193181E+01   8.365489E+01   8.347179E+01   8.202010E+01   8.188750E+01   8.265666E+01   8.371783E+01   8.373353E+01   8.230254E+01   8.094555E+01   8.343465E+01   8.270651E+01   8.225186E+01
   8.237091E+01   8.242707E+01   8.156692E+01   8.242723E+01   8.241907E+01   8.332114E+01   8.241646E+01   8.354778E+01   8.288961E+01   8.247036E+01   8.236425E+01   8.247083E+01   8.269473E+01   8.234120E+01   8.298299E+01   8.269634E+01   8.224594E+01   8.119376E+01   8.283216E+01   8.318941E+01   8.296332E+01   8.153354E+01   8.382843E+01   8.259457E+01   8.180039E+01
   8.286778E+01   8.064911E+01   8.302026E+01   8.214793E+01   8.405053E+01   8.185071E+01   8.168391E+01   8.157793E+01   8.236990E+01   8.241582E+01   8.286316E+01   8.135215E+01   8.111475E+01   8.098254E+01   8.289333E+01   8.278467E+01   8.240177E+01   8.366435E+01   8.292222E+01   8.225834E+01   8.293808E+01   8.222698E+01   8.122181E+01   8.236179E+01   8.277427E+01
   8.309258E+01   8.289848E+01   8.233435E+01   8.272543E+01   8.328055E+01   8.252107E+01   8.130051E+01   8.291839E+01   8.213848E+01   8.300081E+01   8.230891E+01   8.144221E+01   8.229074E+01   8.117233E+01   8.027129E+01   8.236800E+01   8.243519E+01   8.370908E+01   8.148027E+01   8.257124E+01   8.189408E+01   8.242696E+01   8.070076E+01   8.162495E+01   8.263541E+01
   8.182346E+01   8.278451E+01   8.362528E+01   8.369170E+01   8.255448E+01   8.230296E+01   8.238894E+01   8.413239E+01   8.389290E+01   8.176701E+01   8.191344E+01   8.203880E+01   8.253937E+01   8.250427E+01   8.209395E+01   8.266046E+01   8.182252E+01   8.382011E+01   8.310638E+01   8.356973E+01   8.283694E+01   8.175098E+01   8.257739E+01   8.469934E+01   8.261754E+01
   8.330624E+01   8.214512E+01   8.217538E+01   8.378925E+01   8.147241E+01   8.230343E+01   8.144009E+01   8.187019E+01   8.180785E+01   8.121077E+01   8.253514E+01   8.330233E+01   8.275053E+01   8.266229E+01   8.296586E+01   8.329598E+01   8.129433E+01   8.132478E+01   8.316915E+01   8.178587E+01   8.300772E+01   8.207978E+01   8.274387E+01   8.197711E+01   8.248229E+01
   8.167624E+01   8.186456E+01   8.316486E+01   8.166776E+01   8.116077E+01   8.083421E+01   8.249286E+01   8.192324E+01   8.069287E+01   8.262462E+01   8.231223E+01   8.230864E+01   8.220937E+01   8.270945E+01   8.248681E+01   8.163189E+01   8.167929E+01   8.220461E+01   8.107108E+01   8.241514E+01   8.273327E+01   8.426789E+01   8.293727E+01   8.212653E+01   8.346619E+01
   8.318098E+01   8.266237E+01   8.039584E+01   8.357448E+01   8.283011E+01   8.349219E+01   8.268909E+01   8.210317E+01   8.188322E+01   8.272410E+01   8.198638E+01   8.219196E+01   8.102971E+01   8.157970E+01   8.212937E+01   8.250383E+01   8.330168E+01   8.302135E+01   8.267978E+01   8.250825E+01   8.212363E+01   8.270728E+01   8.291568E+01   8.221947E+01   8.328638E+01
   8.323127E+01   8.336073E+01   8.252951E+01   8.225726E+01   8.236483E+01   8.341328E+01   8.122968E+01   8.254185E+01   8.112959E+01   8.361192E+01   8.187281E+01   8.321222E+01   8.274222E+01   8.288010E+01   8.275496E+01   8.202876E+01   8.285110E+01   8.338023E+01   8.207153E+01   8.162697E+01   8.329224E+01   8.247057E+01   8.207819E+01   8.335515E+01   8.349610E+01
   8.275517E+01   8.302057E+01   8.154121E+01   8.381501E+01   8.299074E+01   8.213576E+01   8.176249E+01   8.299274E+01   8.301350E+01   8.289321E+01   8.206221E+01   8.154809E+01   8.272145E+01   8.209988E+01   8.109282E+01   8.094238E+01   8.353916E+01   8.227843E+01   8.145557E+01   8.103801E+01   8.162561E+01   8.116296E+01   8.372924E+01   8.279331E+01   8.195273E+01
   8.199543E+01   8.063704E+01   8.387299E+01   8.317801E+01   8.338329E+01   8.158578E+01   8.210893E+01   8.278490E+01   8.299992E+01   8.168598E+01   8.184161E+01   8.360612E+01   8.088831E+01   8.348232E+01   8.214352E+01   8.277058E+01   8.464311E+01   8.321258E+01   8.254806E+01   8.366314E+01   8.173711E+01   8.308244E+01   8.192540E+01   8.201012E+01   8.206935E+01
INTERNAL               1  (25E15.6) -1 #botm layer 3                  
   7.163081E+01   7.054765E+01   7.195464E+01   6.976208E+01   7.164661E+01   7.036903E+01   7.075950E+01   7.340298E+01   7.114195E+01   7.088281E+01   7.066669E+01   7.171336E+01   6.976580E+01   7.230865E+01   7.125011E+01   7.174271E+01   7.360523E+01   7.183199E+01   7.078268E+01   7.147083E+01   7.044105E+01   7.207240E+01   7.304261E+01   7.110935E+01   7.173146E+01
   7.147239E+01   7.085125E+01   7.199604E+01   7.191289E+01   7.153775E+01   7.271730E+01   7.218739E+01   7.141290E+01   6.959440E+01   7.276106E+01   7.299124E+01   7.138251E+01   7.127457E+01   7.317737E+01   7.374261E+01   6.998948E+01   7.048343E+01   7.315975E+01   6.899989E+01   7.137239E+01   7.141840E+01   7.250901E+01   6.990987E+01   7.108515E+01   7.109153E+01
   7.223080E+01   7.126871E+01   7.127036E+01   7.129462E+01   7.068891E+01   7.155003E+01   7.180842E+01   7.036562E+01   7.233844E+01   7.085883E+01   7.179168E+01   7.111639E+01   7.129416E+01   6.955195E+01   7.238524E+01   7.055808E+01   7.285966E+01   7.335622E+01   7.027557E+01   7.190456E+01   7.155412E+01   7.159628E+01   7.223662E+01   7.251906E+01   7.272070E+01
   7.190592E+01   7.073219E+01   7.214827E+01   7.129420E+01   7.137316E+01   7.205299E+01   6.992364E+01   7.030606E+01   7.263379E+01   7.190922E+01   7.018156E+01   7.056216E+01   7.358498E+01   7.175311E+01   7.133906E+01   7.083277E+01   7.153636E+01   7.139347E+01   7.109498E+01   7.073615E+01   7.262012E+01   7.219765E+01   7.322051E+01   7.137146E+01   7.098102E+01
   7.048451E+01   7.160914E+01   6.960359E+01   7.164828E+01   7.172565E+01   7.028999E+01   7.118935E+01   7.166848E+01   7.105240E+01   7.102757E+01   7.018379E+01   7.027925E+01   7.097464E+01   7.352024E+01   7.111617E+01   7.083523E+01   7.143168E+01   7.160721E+01   7.100948E+01   6.922077E+01   7.178643E+01   7.097973E+01   7.394414E+01   7.176131E+01   7.172310E+01
   7.168044E+01   7.125906E+01   6.958623E+01   7.163911E+01   7.227589E+01   7.085452E+01   6.924141E+01   7.156004E+01   7.142546E+01   7.065800E+01   7.091611E+01   7.278489E+01   7.171346E+01   7.058260E+01   7.167844E+01   7.082568E+01   7.243736E+01   7.127644E+01   7.189895E+01   7.153812E+01   7.264178E+01   7.232649E+01   7.206605E+01   7.059859E+01   7.132877E+01
   7.209819E+01   7.261393E+01   7.014082E+01   7.156302E+01   7.217833E+01   6.994253E+01   7.212359E+01   7.068344E+01   7.119658E+01   7.286427E+01   7.053528E+01   7.187045E+01   7.144342E+01   7.185313E+01   7.077526E+01   7.159866E+01   7.047245E+01   7.247286E+01   7.099288E+01   7.341143E+01   7.395958E+01   7.184729E+01   7.193928E+01   7.140914E+01   7.074217E+01
   6.971776E+01   7.284890E+01   7.084258E+01   6.979628E+01   7.262708E+01   7.165950E+01   7.120581E+01   7.211681E+01   7.346075E+01   7.150959E+01   7.100434E+01   7.043528E+01   7.251625E+01   6.994441E+01   7.257202E+01   7.256165E+01   7.155746E+01   7.165787E+01   7.252650E+01   7.217866E+01   7.135817E+01   7.067641E+01   7.195171E+01   7.207861E+01   7.102910E+01
   7.143324E+01   7.108642E+01   7.032059E+01   7.290195E+01   7.021906E+01   7.122866E+01   7.244884E+01   7.016939E+01   7.218848E+01   7.246307E+01   7.126442E+01   7.199910E+01   7.228796E+01   7.159945E+01   7.297886E+01   7.243068E+01   7.306464E+01   7.014074E+01   7.057597E+01   7.183147E+01   7.218795E+01   7.024282E+01   7.154327E+01   7.131992E+01   7.202831E+01
   7.134550E+01   7.160054E+01   6.968778E+01   7.216512E+01   7.122318E+01   7.019039E+01   7.257420E+01   7.166846E+01   7.231702E+01   7.062267E+01   7.298841E+01   7.420575E+01   7.104050E+01   7.253595E+01   7.317705E+01   7.102441E+01   7.063620E+01   7.179746E+01   7.237112E+01   7.203043E+01   7.167066E+01   6.930482E+01   7.288604E+01   7.194690E+01   7.106041E+01
   7.169606E+01   7.070414E+01   7.036417E+01   7.134595E+01   7.064595E+01   7.329761E+01   7.147389E+01   7.208596E+01   7.158759E+01   7.149252E+01   7.231104E+01   7.190986E+01   7.243555E+01   7.123310E+01   7.235052E+01   7.089230E+01   7.223870E+01   6.951215E+01   7.124504E+01   7.318760E+01   7.175026E+01   7.042350E+01   7.258722E+01   7.253617E+01   7.092364E+01
   7.285516E+01   6.888017E+01   7.202869E+01   7.081283E+01   7.386325E+01   7.047045E+01   7.130122E+01   7.112137E+01   7.083509E+01   7.124236E+01   7.123927E+01   7.082851E+01   7.108277E+01   6.948076E+01   7.138135E+01   7.217474E+01   7.073180E+01   7.190556E+01   7.096899E+01   7.121537E+01   7.264815E+01   7.026562E+01   6.945187E+01   7.175549E+01   7.157620E+01
   7.160906E+01   7.246462E+01   7.204259E+01   7.206332E+01   7.325651E+01   7.177844E+01   7.046405E+01   7.274400E+01   7.122462E+01   7.175425E+01   7.038293E+01   6.958710E+01   7.218346E+01   6.948035E+01   6.828767E+01   7.059700E+01   7.057853E+01   7.182954E+01   7.023154E+01   7.057836E+01   7.188522E+01   7.054478E+01   7.017094E+01   7.038326E+01   7.096171E+01
   7.078915E+01   7.212238E+01   7.276350E+01   7.297496E+01   7.206826E+01   7.065360E+01   7.101506E+01   7.401052E+01   7.268063E+01   7.108739E+01   7.079473E+01   7.097541E+01   7.157656E+01   7.121408E+01   7.126952E+01   7.125364E+01   7.013343E+01   7.322936E+01   7.129916E+01   7.157408E+01   7.228979E+01   7.145832E+01   7.089563E+01   7.327969E+01   7.206798E+01
   7.236584E+01   7.045240E+01   7.170777E+01   7.330204E+01   7.140117E+01   7.183407E+01   7.001221E+01   7.014696E+01   7.052245E+01   7.078669E+01   7.115827E+01   7.326216E+01   7.126735E+01   7.189898E+01   7.237348E+01   7.141826E+01   7.012629E+01   7.070983E+01   7.261565E+01   7.175620E+01   7.250356E+01   7.160018E+01   7.249533E+01   7.176649E+01   7.141697E+01
   7.003791E+01   6.987035E+01   7.184989E+01   7.141621E+01   6.933392E+01   7.028903E+01   7.107719E+01   7.068280E+01   7.021288E+01   7.249832E+01   7.171999E+01   7.120226E+01   7.095905E+01   7.106359E+01   7.165125E+01   7.146706E+01   7.071117E+01   7.085830E+01   6.937394E+01   7.069302E+01   7.114868E+01   7.269028E+01   7.291968E+01   7.164722E+01   7.329237E+01
   7.182049E+01   7.161849E+01   6.872613E+01   7.170929E+01   7.105378E+01   7.257074E+01   7.221532E+01   7.190623E+01   7.006738E+01   7.076311E+01   7.198306E+01   7.102960E+01   7.062073E+01   7.046160E+01   7.091643E+01   7.225069E+01   7.297457E+01   7.245027E+01   7.123221E+01   7.193536E+01   7.201791E+01   7.174141E+01   7.146919E+01   7.045244E+01   7.134749E+01
   7.201764E+01   7.219543E+01   7.136026E+01   7.028123E+01   7.225705E+01   7.141937E+01   7.019179E+01   7.152596E+01   7.062458E+01   7.272316E+01   7.137405E+01   7.316271E+01   7.130005E+01   7.180039E+01   7.133384E+01   7.045377E+01   7.248182E+01   7.296677E+01   7.031823E+01   7.079124E+01   7.320629E+01   7.217805E+01   7.017415E+01   7.237140E+01   7.218779E+01