# Name file for MODFLOW-2005, generated by Flopy.
#xul:0; yul:4100; rotation:0; proj4_str:+init=EPSG:4326; units:meters; lenuni:2 ;start_datetime:1-1-1970
LIST           2 npftest.list
DIS           11 npftest.dis 
BAS6          13 npftest.bas 
LPF           15 npftest.lpf 
RCH           19 npftest.rch 
GHB           23 npftest.ghb 
RIV           18 npftest.riv 
WEL           20 npftest.wel 
SMS           27 npftest.sms 
OC            14 npftest.oc 
DATA(BINARY)  51 npftest.hds REPLACE
DATA(BINARY)  52 npftest.ddn REPLACE
DATA(BINARY)  53 npftest.cbc REPLACE
