# Well file for MODFLOW, generated by Flopy.
         1         0
         1         0 # stress period 0
         3        11        13  -1.0000000E+01
