# GHB for MODFLOW
       102         0
       102         0 # stress period 1
         1         1         1 12.500000 450.000000
         1         1        51 -2.500000 150.000000
         1         2         1 12.500000 450.000000
         1         2        51 -2.500000 150.000000
         1         3         1 12.500000 450.000000
         1         3        51 -2.500000 150.000000
         1         4         1 12.500000 450.000000
         1         4        51 -2.500000 150.000000
         1         5         1 12.500000 450.000000
         1         5        51 -2.500000 150.000000
         1         6         1 12.500000 450.000000
         1         6        51 -2.500000 150.000000
         1         7         1 12.500000 450.000000
         1         7        51 -2.500000 150.000000
         1         8         1 12.500000 450.000000
         1         8        51 -2.500000 150.000000
         1         9         1 12.500000 450.000000
         1         9        51 -2.500000 150.000000
         1        10         1 12.500000 450.000000
         1        10        51 -2.500000 150.000000
         1        11         1 12.500000 450.000000
         1        11        51 -2.500000 150.000000
         1        12         1 12.500000 450.000000
         1        12        51 -2.500000 150.000000
         1        13         1 12.500000 450.000000
         1        13        51 -2.500000 150.000000
         1        14         1 12.500000 450.000000
         1        14        51 -2.500000 150.000000
         1        15         1 12.500000 450.000000
         1        15        51 -2.500000 150.000000
         1        16         1 12.500000 450.000000
         1        16        51 -2.500000 150.000000
         1        17         1 12.500000 450.000000
         1        17        51 -2.500000 150.000000
         1        18         1 12.500000 450.000000
         1        18        51 -2.500000 150.000000
         1        19         1 12.500000 450.000000
         1        19        51 -2.500000 150.000000
         1        20         1 12.500000 450.000000
         1        20        51 -2.500000 150.000000
         1        21         1 12.500000 450.000000
         1        21        51 -2.500000 150.000000
         1        22         1 12.500000 450.000000
         1        22        51 -2.500000 150.000000
         1        23         1 12.500000 450.000000
         1        23        51 -2.500000 150.000000
         1        24         1 12.500000 450.000000
         1        24        51 -2.500000 150.000000
         1        25         1 12.500000 450.000000
         1        25        51 -2.500000 150.000000
         1        26         1 12.500000 450.000000
         1        26        51 -2.500000 150.000000
         1        27         1 12.500000 450.000000
         1        27        51 -2.500000 150.000000
         1        28         1 12.500000 450.000000
         1        28        51 -2.500000 150.000000
         1        29         1 12.500000 450.000000
         1        29        51 -2.500000 150.000000
         1        30         1 12.500000 450.000000
         1        30        51 -2.500000 150.000000
         1        31         1 12.500000 450.000000
         1        31        51 -2.500000 150.000000
         1        32         1 12.500000 450.000000
         1        32        51 -2.500000 150.000000
         1        33         1 12.500000 450.000000
         1        33        51 -2.500000 150.000000
         1        34         1 12.500000 450.000000
         1        34        51 -2.500000 150.000000
         1        35         1 12.500000 450.000000
         1        35        51 -2.500000 150.000000
         1        36         1 12.500000 450.000000
         1        36        51 -2.500000 150.000000
         1        37         1 12.500000 450.000000
         1        37        51 -2.500000 150.000000
         1        38         1 12.500000 450.000000
         1        38        51 -2.500000 150.000000
         1        39         1 12.500000 450.000000
         1        39        51 -2.500000 150.000000
         1        40         1 12.500000 450.000000
         1        40        51 -2.500000 150.000000
         1        41         1 12.500000 450.000000
         1        41        51 -2.500000 150.000000
         1        42         1 12.500000 450.000000
         1        42        51 -2.500000 150.000000
         1        43         1 12.500000 450.000000
         1        43        51 -2.500000 150.000000
         1        44         1 12.500000 450.000000
         1        44        51 -2.500000 150.000000
         1        45         1 12.500000 450.000000
         1        45        51 -2.500000 150.000000
         1        46         1 12.500000 450.000000
         1        46        51 -2.500000 150.000000
         1        47         1 12.500000 450.000000
         1        47        51 -2.500000 150.000000
         1        48         1 12.500000 450.000000
         1        48        51 -2.500000 150.000000
         1        49         1 12.500000 450.000000
         1        49        51 -2.500000 150.000000
         1        50         1 12.500000 450.000000
         1        50        51 -2.500000 150.000000
         1        51         1 12.500000 450.000000
         1        51        51 -2.500000 150.000000
       102         0 # stress period 2
         1         1         1  9.500000 390.000000
         1         1        51  0.500000 210.000000
         1         2         1  9.500000 390.000000
         1         2        51  0.500000 210.000000
         1         3         1  9.500000 390.000000
         1         3        51  0.500000 210.000000
         1         4         1  9.500000 390.000000
         1         4        51  0.500000 210.000000
         1         5         1  9.500000 390.000000
         1         5        51  0.500000 210.000000
         1         6         1  9.500000 390.000000
         1         6        51  0.500000 210.000000
         1         7         1  9.500000 390.000000
         1         7        51  0.500000 210.000000
         1         8         1  9.500000 390.000000
         1         8        51  0.500000 210.000000
         1         9         1  9.500000 390.000000
         1         9        51  0.500000 210.000000
         1        10         1  9.500000 390.000000
         1        10        51  0.500000 210.000000
         1        11         1  9.500000 390.000000
         1        11        51  0.500000 210.000000
         1        12         1  9.500000 390.000000
         1        12        51  0.500000 210.000000
         1        13         1  9.500000 390.000000
         1        13        51  0.500000 210.000000
         1        14         1  9.500000 390.000000
         1        14        51  0.500000 210.000000
         1        15         1  9.500000 390.000000
         1        15        51  0.500000 210.000000
         1        16         1  9.500000 390.000000
         1        16        51  0.500000 210.000000
         1        17         1  9.500000 390.000000
         1        17        51  0.500000 210.000000
         1        18         1  9.500000 390.000000
         1        18        51  0.500000 210.000000
         1        19         1  9.500000 390.000000
         1        19        51  0.500000 210.000000
         1        20         1  9.500000 390.000000
         1        20        51  0.500000 210.000000
         1        21         1  9.500000 390.000000
         1        21        51  0.500000 210.000000
         1        22         1  9.500000 390.000000
         1        22        51  0.500000 210.000000
         1        23         1  9.500000 390.000000
         1        23        51  0.500000 210.000000
         1        24         1  9.500000 390.000000
         1        24        51  0.500000 210.000000
         1        25         1  9.500000 390.000000
         1        25        51  0.500000 210.000000
         1        26         1  9.500000 390.000000
         1        26        51  0.500000 210.000000
         1        27         1  9.500000 390.000000
         1        27        51  0.500000 210.000000
         1        28         1  9.500000 390.000000
         1        28        51  0.500000 210.000000
         1        29         1  9.500000 390.000000
         1        29        51  0.500000 210.000000
         1        30         1  9.500000 390.000000
         1        30        51  0.500000 210.000000
         1        31         1  9.500000 390.000000
         1        31        51  0.500000 210.000000
         1        32         1  9.500000 390.000000
         1        32        51  0.500000 210.000000
         1        33         1  9.500000 390.000000
         1        33        51  0.500000 210.000000
         1        34         1  9.500000 390.000000
         1        34        51  0.500000 210.000000
         1        35         1  9.500000 390.000000
         1        35        51  0.500000 210.000000
         1        36         1  9.500000 390.000000
         1        36        51  0.500000 210.000000
         1        37         1  9.500000 390.000000
         1        37        51  0.500000 210.000000
         1        38         1  9.500000 390.000000
         1        38        51  0.500000 210.000000
         1        39         1  9.500000 390.000000
         1        39        51  0.500000 210.000000
         1        40         1  9.500000 390.000000
         1        40        51  0.500000 210.000000
         1        41         1  9.500000 390.000000
         1        41        51  0.500000 210.000000
         1        42         1  9.500000 390.000000
         1        42        51  0.500000 210.000000
         1        43         1  9.500000 390.000000
         1        43        51  0.500000 210.000000
         1        44         1  9.500000 390.000000
         1        44        51  0.500000 210.000000
         1        45         1  9.500000 390.000000
         1        45        51  0.500000 210.000000
         1        46         1  9.500000 390.000000
         1        46        51  0.500000 210.000000
         1        47         1  9.500000 390.000000
         1        47        51  0.500000 210.000000
         1        48         1  9.500000 390.000000
         1        48        51  0.500000 210.000000
         1        49         1  9.500000 390.000000
         1        49        51  0.500000 210.000000
         1        50         1  9.500000 390.000000
         1        50        51  0.500000 210.000000
         1        51         1  9.500000 390.000000
         1        51        51  0.500000 210.000000
       102         0 # stress period 3
         1         1         1  8.500000 370.000000
         1         1        51  1.500000 230.000000
         1         2         1  8.500000 370.000000
         1         2        51  1.500000 230.000000
         1         3         1  8.500000 370.000000
         1         3        51  1.500000 230.000000
         1         4         1  8.500000 370.000000
         1         4        51  1.500000 230.000000
         1         5         1  8.500000 370.000000
         1         5        51  1.500000 230.000000
         1         6         1  8.500000 370.000000
         1         6        51  1.500000 230.000000
         1         7         1  8.500000 370.000000
         1         7        51  1.500000 230.000000
         1         8         1  8.500000 370.000000
         1         8        51  1.500000 230.000000
         1         9         1  8.500000 370.000000
         1         9        51  1.500000 230.000000
         1        10         1  8.500000 370.000000
         1        10        51  1.500000 230.000000
         1        11         1  8.500000 370.000000
         1        11        51  1.500000 230.000000
         1        12         1  8.500000 370.000000
         1        12        51  1.500000 230.000000
         1        13         1  8.500000 370.000000
         1        13        51  1.500000 230.000000
         1        14         1  8.500000 370.000000
         1        14        51  1.500000 230.000000
         1        15         1  8.500000 370.000000
         1        15        51  1.500000 230.000000
         1        16         1  8.500000 370.000000
         1        16        51  1.500000 230.000000
         1        17         1  8.500000 370.000000
         1        17        51  1.500000 230.000000
         1        18         1  8.500000 370.000000
         1        18        51  1.500000 230.000000
         1        19         1  8.500000 370.000000
         1        19        51  1.500000 230.000000
         1        20         1  8.500000 370.000000
         1        20        51  1.500000 230.000000
         1        21         1  8.500000 370.000000
         1        21        51  1.500000 230.000000
         1        22         1  8.500000 370.000000
         1        22        51  1.500000 230.000000
         1        23         1  8.500000 370.000000
         1        23        51  1.500000 230.000000
         1        24         1  8.500000 370.000000
         1        24        51  1.500000 230.000000
         1        25         1  8.500000 370.000000
         1        25        51  1.500000 230.000000
         1        26         1  8.500000 370.000000
         1        26        51  1.500000 230.000000
         1        27         1  8.500000 370.000000
         1        27        51  1.500000 230.000000
         1        28         1  8.500000 370.000000
         1        28        51  1.500000 230.000000
         1        29         1  8.500000 370.000000
         1        29        51  1.500000 230.000000
         1        30         1  8.500000 370.000000
         1        30        51  1.500000 230.000000
         1        31         1  8.500000 370.000000
         1        31        51  1.500000 230.000000
         1        32         1  8.500000 370.000000
         1        32        51  1.500000 230.000000
         1        33         1  8.500000 370.000000
         1        33        51  1.500000 230.000000
         1        34         1  8.500000 370.000000
         1        34        51  1.500000 230.000000
         1        35         1  8.500000 370.000000
         1        35        51  1.500000 230.000000
         1        36         1  8.500000 370.000000
         1        36        51  1.500000 230.000000
         1        37         1  8.500000 370.000000
         1        37        51  1.500000 230.000000
         1        38         1  8.500000 370.000000
         1        38        51  1.500000 230.000000
         1        39         1  8.500000 370.000000
         1        39        51  1.500000 230.000000
         1        40         1  8.500000 370.000000
         1        40        51  1.500000 230.000000
         1        41         1  8.500000 370.000000
         1        41        51  1.500000 230.000000
         1        42         1  8.500000 370.000000
         1        42        51  1.500000 230.000000
         1        43         1  8.500000 370.000000
         1        43        51  1.500000 230.000000
         1        44         1  8.500000 370.000000
         1        44        51  1.500000 230.000000
         1        45         1  8.500000 370.000000
         1        45        51  1.500000 230.000000
         1        46         1  8.500000 370.000000
         1        46        51  1.500000 230.000000
         1        47         1  8.500000 370.000000
         1        47        51  1.500000 230.000000
         1        48         1  8.500000 370.000000
         1        48        51  1.500000 230.000000
         1        49         1  8.500000 370.000000
         1        49        51  1.500000 230.000000
         1        50         1  8.500000 370.000000
         1        50        51  1.500000 230.000000
         1        51         1  8.500000 370.000000
         1        51        51  1.500000 230.000000
       102         0 # stress period 4
         1         1         1  7.500000 350.000000
         1         1        51  2.500000 250.000000
         1         2         1  7.500000 350.000000
         1         2        51  2.500000 250.000000
         1         3         1  7.500000 350.000000
         1         3        51  2.500000 250.000000
         1         4         1  7.500000 350.000000
         1         4        51  2.500000 250.000000
         1         5         1  7.500000 350.000000
         1         5        51  2.500000 250.000000
         1         6         1  7.500000 350.000000
         1         6        51  2.500000 250.000000
         1         7         1  7.500000 350.000000
         1         7        51  2.500000 250.000000
         1         8         1  7.500000 350.000000
         1         8        51  2.500000 250.000000
         1         9         1  7.500000 350.000000
         1         9        51  2.500000 250.000000
         1        10         1  7.500000 350.000000
         1        10        51  2.500000 250.000000
         1        11         1  7.500000 350.000000
         1        11        51  2.500000 250.000000
         1        12         1  7.500000 350.000000
         1        12        51  2.500000 250.000000
         1        13         1  7.500000 350.000000
         1        13        51  2.500000 250.000000
         1        14         1  7.500000 350.000000
         1        14        51  2.500000 250.000000
         1        15         1  7.500000 350.000000
         1        15        51  2.500000 250.000000
         1        16         1  7.500000 350.000000
         1        16        51  2.500000 250.000000
         1        17         1  7.500000 350.000000
         1        17        51  2.500000 250.000000
         1        18         1  7.500000 350.000000
         1        18        51  2.500000 250.000000
         1        19         1  7.500000 350.000000
         1        19        51  2.500000 250.000000
         1        20         1  7.500000 350.000000
         1        20        51  2.500000 250.000000
         1        21         1  7.500000 350.000000
         1        21        51  2.500000 250.000000
         1        22         1  7.500000 350.000000
         1        22        51  2.500000 250.000000
         1        23         1  7.500000 350.000000
         1        23        51  2.500000 250.000000
         1        24         1  7.500000 350.000000
         1        24        51  2.500000 250.000000
         1        25         1  7.500000 350.000000
         1        25        51  2.500000 250.000000
         1        26         1  7.500000 350.000000
         1        26        51  2.500000 250.000000
         1        27         1  7.500000 350.000000
         1        27        51  2.500000 250.000000
         1        28         1  7.500000 350.000000
         1        28        51  2.500000 250.000000
         1        29         1  7.500000 350.000000
         1        29        51  2.500000 250.000000
         1        30         1  7.500000 350.000000
         1        30        51  2.500000 250.000000
         1        31         1  7.500000 350.000000
         1        31        51  2.500000 250.000000
         1        32         1  7.500000 350.000000
         1        32        51  2.500000 250.000000
         1        33         1  7.500000 350.000000
         1        33        51  2.500000 250.000000
         1        34         1  7.500000 350.000000
         1        34        51  2.500000 250.000000
         1        35         1  7.500000 350.000000
         1        35        51  2.500000 250.000000
         1        36         1  7.500000 350.000000
         1        36        51  2.500000 250.000000
         1        37         1  7.500000 350.000000
         1        37        51  2.500000 250.000000
         1        38         1  7.500000 350.000000
         1        38        51  2.500000 250.000000
         1        39         1  7.500000 350.000000
         1        39        51  2.500000 250.000000
         1        40         1  7.500000 350.000000
         1        40        51  2.500000 250.000000
         1        41         1  7.500000 350.000000
         1        41        51  2.500000 250.000000
         1        42         1  7.500000 350.000000
         1        42        51  2.500000 250.000000
         1        43         1  7.500000 350.000000
         1        43        51  2.500000 250.000000
         1        44         1  7.500000 350.000000
         1        44        51  2.500000 250.000000
         1        45         1  7.500000 350.000000
         1        45        51  2.500000 250.000000
         1        46         1  7.500000 350.000000
         1        46        51  2.500000 250.000000
         1        47         1  7.500000 350.000000
         1        47        51  2.500000 250.000000
         1        48         1  7.500000 350.000000
         1        48        51  2.500000 250.000000
         1        49         1  7.500000 350.000000
         1        49        51  2.500000 250.000000
         1        50         1  7.500000 350.000000
         1        50        51  2.500000 250.000000
         1        51         1  7.500000 350.000000
         1        51        51  2.500000 250.000000
       102         0 # stress period 5
         1         1         1  6.500000 330.000000
         1         1        51  3.500000 270.000000
         1         2         1  6.500000 330.000000
         1         2        51  3.500000 270.000000
         1         3         1  6.500000 330.000000
         1         3        51  3.500000 270.000000
         1         4         1  6.500000 330.000000
         1         4        51  3.500000 270.000000
         1         5         1  6.500000 330.000000
         1         5        51  3.500000 270.000000
         1         6         1  6.500000 330.000000
         1         6        51  3.500000 270.000000
         1         7         1  6.500000 330.000000
         1         7        51  3.500000 270.000000
         1         8         1  6.500000 330.000000
         1         8        51  3.500000 270.000000
         1         9         1  6.500000 330.000000
         1         9        51  3.500000 270.000000
         1        10         1  6.500000 330.000000
         1        10        51  3.500000 270.000000
         1        11         1  6.500000 330.000000
         1        11        51  3.500000 270.000000
         1        12         1  6.500000 330.000000
         1        12        51  3.500000 270.000000
         1        13         1  6.500000 330.000000
         1        13        51  3.500000 270.000000
         1        14         1  6.500000 330.000000
         1        14        51  3.500000 270.000000
         1        15         1  6.500000 330.000000
         1        15        51  3.500000 270.000000
         1        16         1  6.500000 330.000000
         1        16        51  3.500000 270.000000
         1        17         1  6.500000 330.000000
         1        17        51  3.500000 270.000000
         1        18         1  6.500000 330.000000
         1        18        51  3.500000 270.000000
         1        19         1  6.500000 330.000000
         1        19        51  3.500000 270.000000
         1        20         1  6.500000 330.000000
         1        20        51  3.500000 270.000000
         1        21         1  6.500000 330.000000
         1        21        51  3.500000 270.000000
         1        22         1  6.500000 330.000000
         1        22        51  3.500000 270.000000
         1        23         1  6.500000 330.000000
         1        23        51  3.500000 270.000000
         1        24         1  6.500000 330.000000
         1        24        51  3.500000 270.000000
         1        25         1  6.500000 330.000000
         1        25        51  3.500000 270.000000
         1        26         1  6.500000 330.000000
         1        26        51  3.500000 270.000000
         1        27         1  6.500000 330.000000
         1        27        51  3.500000 270.000000
         1        28         1  6.500000 330.000000
         1        28        51  3.500000 270.000000
         1        29         1  6.500000 330.000000
         1        29        51  3.500000 270.000000
         1        30         1  6.500000 330.000000
         1        30        51  3.500000 270.000000
         1        31         1  6.500000 330.000000
         1        31        51  3.500000 270.000000
         1        32         1  6.500000 330.000000
         1        32        51  3.500000 270.000000
         1        33         1  6.500000 330.000000
         1        33        51  3.500000 270.000000
         1        34         1  6.500000 330.000000
         1        34        51  3.500000 270.000000
         1        35         1  6.500000 330.000000
         1        35        51  3.500000 270.000000
         1        36         1  6.500000 330.000000
         1        36        51  3.500000 270.000000
         1        37         1  6.500000 330.000000
         1        37        51  3.500000 270.000000
         1        38         1  6.500000 330.000000
         1        38        51  3.500000 270.000000
         1        39         1  6.500000 330.000000
         1        39        51  3.500000 270.000000
         1        40         1  6.500000 330.000000
         1        40        51  3.500000 270.000000
         1        41         1  6.500000 330.000000
         1        41        51  3.500000 270.000000
         1        42         1  6.500000 330.000000
         1        42        51  3.500000 270.000000
         1        43         1  6.500000 330.000000
         1        43        51  3.500000 270.000000
         1        44         1  6.500000 330.000000
         1        44        51  3.500000 270.000000
         1        45         1  6.500000 330.000000
         1        45        51  3.500000 270.000000
         1        46         1  6.500000 330.000000
         1        46        51  3.500000 270.000000
         1        47         1  6.500000 330.000000
         1        47        51  3.500000 270.000000
         1        48         1  6.500000 330.000000
         1        48        51  3.500000 270.000000
         1        49         1  6.500000 330.000000
         1        49        51  3.500000 270.000000
         1        50         1  6.500000 330.000000
         1        50        51  3.500000 270.000000
         1        51         1  6.500000 330.000000
         1        51        51  3.500000 270.000000
       102         0 # stress period 6
         1         1         1  5.500000 310.000000
         1         1        51  4.500000 290.000000
         1         2         1  5.500000 310.000000
         1         2        51  4.500000 290.000000
         1         3         1  5.500000 310.000000
         1         3        51  4.500000 290.000000
         1         4         1  5.500000 310.000000
         1         4        51  4.500000 290.000000
         1         5         1  5.500000 310.000000
         1         5        51  4.500000 290.000000
         1         6         1  5.500000 310.000000
         1         6        51  4.500000 290.000000
         1         7         1  5.500000 310.000000
         1         7        51  4.500000 290.000000
         1         8         1  5.500000 310.000000
         1         8        51  4.500000 290.000000
         1         9         1  5.500000 310.000000
         1         9        51  4.500000 290.000000
         1        10         1  5.500000 310.000000
         1        10        51  4.500000 290.000000
         1        11         1  5.500000 310.000000
         1        11        51  4.500000 290.000000
         1        12         1  5.500000 310.000000
         1        12        51  4.500000 290.000000
         1        13         1  5.500000 310.000000
         1        13        51  4.500000 290.000000
         1        14         1  5.500000 310.000000
         1        14        51  4.500000 290.000000
         1        15         1  5.500000 310.000000
         1        15        51  4.500000 290.000000
         1        16         1  5.500000 310.000000
         1        16        51  4.500000 290.000000
         1        17         1  5.500000 310.000000
         1        17        51  4.500000 290.000000
         1        18         1  5.500000 310.000000
         1        18        51  4.500000 290.000000
         1        19         1  5.500000 310.000000
         1        19        51  4.500000 290.000000
         1        20         1  5.500000 310.000000
         1        20        51  4.500000 290.000000
         1        21         1  5.500000 310.000000
         1        21        51  4.500000 290.000000
         1        22         1  5.500000 310.000000
         1        22        51  4.500000 290.000000
         1        23         1  5.500000 310.000000
         1        23        51  4.500000 290.000000
         1        24         1  5.500000 310.000000
         1        24        51  4.500000 290.000000
         1        25         1  5.500000 310.000000
         1        25        51  4.500000 290.000000
         1        26         1  5.500000 310.000000
         1        26        51  4.500000 290.000000
         1        27         1  5.500000 310.000000
         1        27        51  4.500000 290.000000
         1        28         1  5.500000 310.000000
         1        28        51  4.500000 290.000000
         1        29         1  5.500000 310.000000
         1        29        51  4.500000 290.000000
         1        30         1  5.500000 310.000000
         1        30        51  4.500000 290.000000
         1        31         1  5.500000 310.000000