# Output control package file for MODFLOW, generated by Flopy.
HEAD PRINT FORMAT   0
HEAD SAVE UNIT    51
DRAWDOWN PRINT FORMAT   0
DRAWDOWN SAVE UNIT    52
COMPACT BUDGET FILES

period 1 step 1 
save head
print budget
print head

period 2 step 1 
save head
print budget
print head

period 3 step 1 
save head
print budget
print head

period 4 step 1 
save head
print budget
print head

period 5 step 1 
save head
print budget
print head

period 6 step 1 
save head
print budget
print head

period 7 step 1 
save head
print budget
print head

period 8 step 1 
save head
print budget
print head

period 9 step 1 
save head
print budget
print head

period 10 step 1 
save head
print budget
print head

period 11 step 1 
save head
print budget
print head

