BEGIN OPTIONS
  TIME_UNITS days
END OPTIONS

BEGIN DIMENSIONS
  NPER 5
END DIMENSIONS

BEGIN PERIODDATA
 #perlen nstp  tsmult
    5.0    1    1.0
    5.0    1    1.0
    5.0    1    1.0
    5.0    1    1.0
    5.0    1    1.0
END PERIODDATA
