# sms8 input file, prepared by mf5to15 on 4/10/2015 at 9:04:54.

begin options
  print_option summary
  complexity  simple
end options

begin nonlinear
  outer_dvclose   1.e-09
  outer_maximum  50
  under_relaxation  dbd
end nonlinear

begin linear
  inner_maximum  30
  inner_dvclose   1.e-09
  inner_rclose   1.e-05
  linear_acceleration  bicgstab
end linear
