# NPF8 input file, prepared by mf5to15 on 4/10/2015 at 9:04:54.

BEGIN Options
  SAVE_FLOWS  flow15_flow.cbc
  ALTERNATIVE_CELL_AVERAGING  AMT-HMK
END Options

BEGIN GRIDDATA
  ICELLTYPE LAYERED
    CONSTANT  1
  k  LAYERED
    CONSTANT   10.00000000    
  K33  LAYERED
    CONSTANT   10.00000000    
END GRIDDATA
