
BEGIN OPTIONS
  HEAD FILEOUT test001e_UZF.hds
  BUDGET FILEOUT test001e_UZF.cbc
END OPTIONS

BEGIN PERIOD 1
  PRINT HEAD ALL
  SAVE HEAD ALL
  PRINT BUDGET ALL
  SAVE BUDGET ALL
END PERIOD
