# STO8 input file, prepared by mf5to15 on 4/10/2015 at 9:04:54.

BEGIN OPTIONS
END OPTIONS

BEGIN GRIDDATA 
  ICONVERT LAYERED
  CONSTANT 1
  SS  LAYERED
  CONSTANT 1.0e-5
  SY  LAYERED
  CONSTANT 0.2
END GRIDDATA

BEGIN PERIOD 1
  STEADY-STATE
END PERIOD

BEGIN PERIOD 2
  TRANSIENT
END PERIOD