BEGIN OPTIONS
END OPTIONS

BEGIN CONTINUOUS FILEOUT  obs.out
ID3_DPTH=.25 WATER-CONTENT 3 0.25
ID3_DPTH=.15 WATER-CONTENT 3 0.15
ID3_RCH uzf-gwrch 3
ID3_DSCH uzf-gwd 5
END CONTINUOUS