# SMS8 input file, prepared by mf5to15 on 4/10/2015 at 9:04:54.

BEGIN Options
  PRINT_OPTION SUMMARY
  COMPLEXITY  SIMPLE
END Options

BEGIN Nonlinear
  OUTER_HCLOSE   1.E-09
  OUTER_MAXIMUM  50
  UNDER_RELAXATION  dbd
END Nonlinear

BEGIN LINEAR
  INNER_MAXIMUM  30
  INNER_HCLOSE   1.E-09
  INNER_RCLOSE   1.E-05
  LINEAR_ACCELERATION  BICGSTAB
END LINEAR
