# UZF8 input file, prepared by mf5to15 on 4/17/15

Begin options
  OBS6 FILEIN test001e_UZF.obs
  SIMULATE_GWSEEP
  PRINT_INPUT
End options

BEGIN Dimensions
  NUZFCELLS    10
  NTRAILWAVES  7
  NWAVESETS    40
END Dimensions

BEGIN PACKAGEDATA
 1 1 1  1 1 0 1.0 1.0 0.05 0.35 0.1 4.0
 2 1 1  2 1 0 1.0 1.0 0.05 0.35 0.1 4.0
 3 1 1  3 1 0 1.0 1.0 0.05 0.35 0.1 4.0
 4 1 1  4 1 0 1.0 1.0 0.05 0.35 0.1 4.0
 5 1 1  5 1 0 1.0 1.0 0.05 0.35 0.1 4.0
 6 1 1  6 1 0 1.0 1.0 0.05 0.35 0.1 4.0
 7 1 1  7 1 0 1.0 1.0 0.05 0.35 0.1 4.0
 8 1 1  8 1 0 1.0 1.0 0.05 0.35 0.1 4.0
 9 1 1  9 1 0 1.0 1.0 0.05 0.35 0.1 4.0
10 1 1 10 1 0 1.0 1.0 0.05 0.35 0.1 4.0
END PACKAGEDATA

BEGIN period 1   
  2 0.00005 0.0 0.0 0.0 0.0 0.0 0.0
  3 0.00008 0.0 0.0 0.0 0.0 0.0 0.0
  4 0.00009 0.0 0.0 0.0 0.0 0.0 0.0
  5 0.0001  0.0 0.0 0.0 0.0 0.0 0.0
  6 0.0001  0.0 0.0 0.0 0.0 0.0 0.0
  7 0.00009 0.0 0.0 0.0 0.0 0.0 0.0
  8 0.00008 0.0 0.0 0.0 0.0 0.0 0.0
  9 0.00005 0.0 0.0 0.0 0.0 0.0 0.0
END period 1     
       
BEGIN period 2   
  2 0.00005 0.0 0.0 0.0 0.0 0.0  0.0 0.0
  3 0.00008 0.0 0.0 0.0 0.0 0.0  0.0 0.0
  4 0.00009 0.0 0.0 0.0 0.0 0.0  0.0 0.0
  5 0.0001  0.0 0.0 0.0 0.0 0.0  0.0 0.0
  6 0.0001  0.0 0.0 0.0 0.0 0.0  0.0 0.0
  7 0.00009 0.0 0.0 0.0 0.0 0.0  0.0 0.0
  8 0.00008 0.0 0.0 0.0 0.0 0.0  0.0 0.0
  9 0.00005 0.0 0.0 0.0 0.0 0.0  0.0 0.0
END period 2     
       
Begin period 3   
  2 0.0005 0.0 0.0 0.0 0.0 0.0 0.0 0.0
  3 0.0008 0.0 0.0 0.0 0.0 0.0 0.0 0.0
  4 0.0009 0.0 0.0 0.0 0.0 0.0 0.0 0.0
  5 0.001  0.0 0.0 0.0 0.0 0.0   0.0 0.0
  6 0.001  0.0 0.0 0.0 0.0 0.0   0.0 0.0
  7 0.0009 0.0 0.0 0.0 0.0 0.0 0.0 0.0
  8 0.0008 0.0 0.0 0.0 0.0 0.0 0.0 0.0
  9 0.0005 0.0 0.0 0.0 0.0 0.0 0.0 0.0
END period 3     
       
BEGIN period 4   
  2 0.00005 0.0 0.0 0.0 0.0 0.0 0.0 0.0
  3 0.00008 0.0 0.0 0.0 0.0 0.0 0.0 0.0
  4 0.00009 0.0 0.0 0.0 0.0 0.0 0.0 0.0
  5 0.0001  0.0 0.0 0.0 0.0 0.0 0.0 0.0
  6 0.0001  0.0 0.0 0.0 0.0 0.0 0.0 0.0
  7 0.00009 0.0 0.0 0.0 0.0 0.0 0.0 0.0
  8 0.00008 0.0 0.0 0.0 0.0 0.0 0.0 0.0
  9 0.00005 0.0 0.0 0.0 0.0 0.0 0.0 0.0
END period 4     
       
Begin period 5   
  2 0.0005 0.0 0.0 0.0 0.0 0.0 0.0 0.0            
  3 0.0008 0.0 0.0 0.0 0.0 0.0 0.0 0.0
  4 0.0009 0.0 0.0 0.0 0.0 0.0 0.0 0.0
  5 0.001  0.0 0.0 0.0 0.0 0.0 0.0 0.0
  6 0.001  0.0 0.0 0.0 0.0 0.0 0.0 0.0
  7 0.0009 0.0 0.0 0.0 0.0 0.0 0.0 0.0
  8 0.0008 0.0 0.0 0.0 0.0 0.0 0.0 0.0
  9 0.0005 0.0 0.0 0.0 0.0 0.0 0.0 0.0
End period 5     
