# Discretization file for MODFLOW, generated by Flopy.
        41        16        27         1         4         2
  0  0  0  0  0  0  0  0  0  0  0  0  0  0  0  0  0  0  0  0  0  0  0  0  0  0  0  0  0  0  0  0  0  0  0  0  0  0  0  0  0
INTERNAL               1 (27G15.6)  -1 #delr                          
   1.000000E+01   1.000000E+01   9.000000E+00   6.000000E+00   4.000000E+00   5.000000E+00   2.000000E+00   1.330000E+00   1.250000E+00   1.000000E+00   1.000000E+00   7.500000E-01   5.000000E-01   3.330000E-01   5.000000E-01   7.500000E-01   1.000000E+00   1.000000E+00   1.250000E+00   1.333000E+00   2.000000E+00   3.000000E+00   4.000000E+00   6.000000E+00   9.000000E+00   1.000000E+01   1.000000E+01
INTERNAL               1 (16G15.6)  -1 #delc                          
   1.000000E+01   9.380000E+00   9.000000E+00   6.000000E+00   4.000000E+00   3.000000E+00   2.000000E+00   1.333000E+00   1.250000E+00   1.000000E+00   1.000000E+00   7.500000E-01   5.000000E-01   3.750000E-01   2.500000E-01   1.665000E-01
CONSTANT    1.000000E+01                           #model_top                     
CONSTANT   -5.000000E+00                           #botm Layer 1                  
CONSTANT   -1.000000E+01                           #botm Layer 2                  
CONSTANT   -1.500000E+01                           #botm Layer 3                  
CONSTANT   -2.000000E+01                           #botm Layer 4                  
CONSTANT   -2.500000E+01                           #botm Layer 5                  
CONSTANT   -3.000000E+01                           #botm Layer 6                  
CONSTANT   -3.500000E+01                           #botm Layer 7                  
CONSTANT   -4.000000E+01                           #botm Layer 8                  
CONSTANT   -4.500000E+01                           #botm Layer 9                  
CONSTANT   -5.000000E+01                           #botm Layer 10                 
CONSTANT   -5.500000E+01                           #botm Layer 11                 
CONSTANT   -6.000000E+01                           #botm Layer 12                 
CONSTANT   -6.500000E+01                           #botm Layer 13                 
CONSTANT   -7.000000E+01                           #botm Layer 14                 
CONSTANT   -7.500000E+01                           #botm Layer 15                 
CONSTANT   -8.000000E+01                           #botm Layer 16                 
CONSTANT   -8.500000E+01                           #botm Layer 17                 
CONSTANT   -9.000000E+01                           #botm Layer 18                 
CONSTANT   -9.500000E+01                           #botm Layer 19                 
CONSTANT   -1.000000E+02                           #botm Layer 20                 
CONSTANT   -1.050000E+02                           #botm Layer 21                 
CONSTANT   -1.100000E+02                           #botm Layer 22                 
CONSTANT   -1.150000E+02                           #botm Layer 23                 
CONSTANT   -1.200000E+02                           #botm Layer 24                 
CONSTANT   -1.250000E+02                           #botm Layer 25                 
CONSTANT   -1.300000E+02                           #botm Layer 26                 
CONSTANT   -1.350000E+02                           #botm Layer 27                 
CONSTANT   -1.400000E+02                           #botm Layer 28                 
CONSTANT   -1.450000E+02                           #botm Layer 29                 
CONSTANT   -1.500000E+02                           #botm Layer 30                 
CONSTANT   -1.550000E+02                           #botm Layer 31                 
CONSTANT   -1.600000E+02                           #botm Layer 32                 
CONSTANT   -1.650000E+02                           #botm Layer 33                 
CONSTANT   -1.700000E+02                           #botm Layer 34                 
CONSTANT   -1.750000E+02                           #botm Layer 35                 
CONSTANT   -1.800000E+02                           #botm Layer 36                 
CONSTANT   -1.850000E+02                           #botm Layer 37                 
CONSTANT   -1.900000E+02                           #botm Layer 38                 
CONSTANT   -1.950000E+02                           #botm Layer 39                 
CONSTANT   -2.000000E+02                           #botm Layer 40                 
CONSTANT   -2.050000E+02                           #botm Layer 41                 
      1.000000             1  1.000000  SS 
