# PCG for MODFLOW, generated by Flopy.
500 200 1 0                     # MXITER ITER1 NPCOND IHCOFADD
1.0e-7 1.0E-4 1.0 0 1 0 1.0    # HCLOSE RCLOSE RELAX NBPOL IPRPCG MUTPCG DAMP
