# STO6 input file, prepared by MF5to6 on 6/8/2017 at 12:33:24.

BEGIN Options
END Options

BEGIN GRIDDATA
  ICONVERT LAYERED
    CONSTANT  1
  SS LAYERED
    CONSTANT   0.10000000E-04
  SY LAYERED
    CONSTANT   0.20000000    
END GRIDDATA
