BEGIN OPTIONS
  SAVE_FLOWS
END OPTIONS

BEGIN GRIDDATA
# icelltype(nodes) -- U1DINT or U3DINT if LAYERED
  ICELLTYPE LAYERED
    CONSTANT 1
    CONSTANT 0
    CONSTANT 0

# K(nodes) -- U1DDBL or U3DDBL if LAYERED
  k LAYERED
    CONSTANT 1.0
    CONSTANT 1.0
    CONSTANT 1.0

# K33(nodes) -- U1DDBL or U3DDBL if LAYERED
  K33 LAYERED
    CONSTANT 1.0
    CONSTANT 1.0
    CONSTANT 1.0

END GRIDDATA

