begin options
  PRINT_INPUT
  PRINT_FLOWS
  SAVE_FLOWS
end options

begin dimensions
  MAXBOUND 45
end dimensions

begin period 1
 1 1  1 49.75
 1 2  1 49.75
 1 3  1 49.75
 1 4  1 49.75
 1 5  1 49.75
 1 6  1 49.75
 1 7  1 49.75
 1 8  1 49.75
 1 9  1 49.75
 1 10 1 49.75
 1 11 1 49.75
 1 12 1 49.75
 1 13 1 49.75
 1 14 1 49.75
 1 15 1 49.75
 2 1  1 49.75
 2 2  1 49.75
 2 3  1 49.75
 2 4  1 49.75
 2 5  1 49.75
 2 6  1 49.75
 2 7  1 49.75
 2 8  1 49.75
 2 9  1 49.75
 2 10 1 49.75
 2 11 1 49.75
 2 12 1 49.75
 2 13 1 49.75
 2 14 1 49.75
 2 15 1 49.75
 3 1  1 49.75
 3 2  1 49.75
 3 3  1 49.75
 3 4  1 49.75
 3 5  1 49.75
 3 6  1 49.75
 3 7  1 49.75
 3 8  1 49.75
 3 9  1 49.75
 3 10 1 49.75
 3 11 1 49.75
 3 12 1 49.75
 3 13 1 49.75
 3 14 1 49.75
 3 15 1 49.75
end period
