BEGIN OPTIONS
END OPTIONS

BEGIN GRIDDATA
  STRT
    CONSTANT 47.
END GRIDDATA
