BEGIN OPTIONS
#none
END OPTIONS

BEGIN TIMING
  TDIS6 simulation.tdis
END TIMING

BEGIN MODELS
  #modeltype    namefile          modelname
         GWF6    ex3_parent.nam    PARENT
         GWF6    ex3_child.nam     CHILD
END MODELS

BEGIN EXCHANGES
  GWF6-GWF6 simulation.exg PARENT CHILD
END EXCHANGES

#implicit coupling
BEGIN SOLUTIONGROUP 1
  MXITER 1
  IMS6 ex3_parent.ims PARENT CHILD
END SOLUTIONGROUP

#explicit coupling (NOT PRESENTLY SUPPORTED)
#BEGIN SOLUTIONGROUP 1
#  MXITER 100
#  IMS6 ex3_parent.ims PARENT
#  IMS6 ex3_child.ims CHILD
#END SOLUTIONGROUP

