BEGIN OPTIONS
  #I2KN
  PRINT_INPUT
  PRINT_FLOWS
END OPTIONS

BEGIN DIMENSIONS
  NUMGNC 666
  NUMALPHAJ 3
END DIMENSIONS

BEGIN GNCDATA
  1 6 3  1 1 1  1 6 2  0 0 0  0 0 0  0.333333333333 0.0 0.0
  1 6 3  1 1 2  0 0 0  0 0 0  0 0 0  0.0 0.0 0.0
  1 6 3  1 1 3  1 6 4  0 0 0  0 0 0  0.333333333333 0.0 0.0
  1 6 4  1 1 4  1 6 3  0 0 0  0 0 0  0.333333333333 0.0 0.0
  1 6 4  1 1 5  0 0 0  0 0 0  0 0 0  0.0 0.0 0.0
  1 6 4  1 1 6  1 6 5  0 0 0  0 0 0  0.333333333333 0.0 0.0
  1 6 5  1 1 7  1 6 4  0 0 0  0 0 0  0.333333333333 0.0 0.0
  1 6 5  1 1 8  0 0 0  0 0 0  0 0 0  0.0 0.0 0.0
  1 6 5  1 1 9  1 6 6  0 0 0  0 0 0  0.333333333333 0.0 0.0
  1 6 6  1 1 10  1 6 5  0 0 0  0 0 0  0.333333333333 0.0 0.0
  1 6 6  1 1 11  0 0 0  0 0 0  0 0 0  0.0 0.0 0.0
  1 6 6  1 1 12  1 6 7  0 0 0  0 0 0  0.333333333333 0.0 0.0
  1 6 7  1 1 13  1 6 6  0 0 0  0 0 0  0.333333333333 0.0 0.0
  1 6 7  1 1 14  0 0 0  0 0 0  0 0 0  0.0 0.0 0.0
  1 6 7  1 1 15  1 6 8  0 0 0  0 0 0  0.333333333333 0.0 0.0
  1 6 8  1 1 16  1 6 7  0 0 0  0 0 0  0.333333333333 0.0 0.0
  1 6 8  1 1 17  0 0 0  0 0 0  0 0 0  0.0 0.0 0.0
  1 6 8  1 1 18  1 6 9  0 0 0  0 0 0  0.333333333333 0.0 0.0
  1 6 3  2 1 1  1 6 2  0 0 0  0 0 0  0.333333333333 0.0 0.0
  1 6 3  2 1 2  0 0 0  0 0 0  0 0 0  0.0 0.0 0.0
  1 6 3  2 1 3  1 6 4  0 0 0  0 0 0  0.333333333333 0.0 0.0
  1 6 4  2 1 4  1 6 3  0 0 0  0 0 0  0.333333333333 0.0 0.0
  1 6 4  2 1 5  0 0 0  0 0 0  0 0 0  0.0 0.0 0.0
  1 6 4  2 1 6  1 6 5  0 0 0  0 0 0  0.333333333333 0.0 0.0
  1 6 5  2 1 7  1 6 4  0 0 0  0 0 0  0.333333333333 0.0 0.0
  1 6 5  2 1 8  0 0 0  0 0 0  0 0 0  0.0 0.0 0.0
  1 6 5  2 1 9  1 6 6  0 0 0  0 0 0  0.333333333333 0.0 0.0
  1 6 6  2 1 10  1 6 5  0 0 0  0 0 0  0.333333333333 0.0 0.0
  1 6 6  2 1 11  0 0 0  0 0 0  0 0 0  0.0 0.0 0.0
  1 6 6  2 1 12  1 6 7  0 0 0  0 0 0  0.333333333333 0.0 0.0
  1 6 7  2 1 13  1 6 6  0 0 0  0 0 0  0.333333333333 0.0 0.0
  1 6 7  2 1 14  0 0 0  0 0 0  0 0 0  0.0 0.0 0.0
  1 6 7  2 1 15  1 6 8  0 0 0  0 0 0  0.333333333333 0.0 0.0
  1 6 8  2 1 16  1 6 7  0 0 0  0 0 0  0.333333333333 0.0 0.0
  1 6 8  2 1 17  0 0 0  0 0 0  0 0 0  0.0 0.0 0.0
  1 6 8  2 1 18  1 6 9  0 0 0  0 0 0  0.333333333333 0.0 0.0
  1 6 3  3 1 1  1 6 2  0 0 0  0 0 0  0.333333333333 0.0 0.0
  1 6 3  3 1 2  0 0 0  0 0 0  0 0 0  0.0 0.0 0.0
  1 6 3  3 1 3  1 6 4  0 0 0  0 0 0  0.333333333333 0.0 0.0
  1 6 4  3 1 4  1 6 3  0 0 0  0 0 0  0.333333333333 0.0 0.0
  1 6 4  3 1 5  0 0 0  0 0 0  0 0 0  0.0 0.0 0.0
  1 6 4  3 1 6  1 6 5  0 0 0  0 0 0  0.333333333333 0.0 0.0
  1 6 5  3 1 7  1 6 4  0 0 0  0 0 0  0.333333333333 0.0 0.0
  1 6 5  3 1 8  0 0 0  0 0 0  0 0 0  0.0 0.0 0.0
  1 6 5  3 1 9  1 6 6  0 0 0  0 0 0  0.333333333333 0.0 0.0
  1 6 6  3 1 10  1 6 5  0 0 0  0 0 0  0.333333333333 0.0 0.0
  1 6 6  3 1 11  0 0 0  0 0 0  0 0 0  0.0 0.0 0.0
  1 6 6  3 1 12  1 6 7  0 0 0  0 0 0  0.333333333333 0.0 0.0
  1 6 7  3 1 13  1 6 6  0 0 0  0 0 0  0.333333333333 0.0 0.0
  1 6 7  3 1 14  0 0 0  0 0 0  0 0 0  0.0 0.0 0.0
  1 6 7  3 1 15  1 6 8  0 0 0  0 0 0  0.333333333333 0.0 0.0
  1 6 8  3 1 16  1 6 7  0 0 0  0 0 0  0.333333333333 0.0 0.0
  1 6 8  3 1 17  0 0 0  0 0 0  0 0 0  0.0 0.0 0.0
  1 6 8  3 1 18  1 6 9  0 0 0  0 0 0  0.333333333333 0.0 0.0
  2 6 3  4 1 1  2 6 2  0 0 0  0 0 0  0.333333333333 0.0 0.0
  2 6 3  4 1 2  0 0 0  0 0 0  0 0 0  0.0 0.0 0.0
  2 6 3  4 1 3  2 6 4  0 0 0  0 0 0  0.333333333333 0.0 0.0
  2 6 4  4 1 4  2 6 3  0 0 0  0 0 0  0.333333333333 0.0 0.0
  2 6 4  4 1 5  0 0 0  0 0 0  0 0 0  0.0 0.0 0.0
  2 6 4  4 1 6  2 6 5  0 0 0  0 0 0  0.333333333333 0.0 0.0
  2 6 5  4 1 7  2 6 4  0 0 0  0 0 0  0.333333333333 0.0 0.0
  2 6 5  4 1 8  0 0 0  0 0 0  0 0 0  0.0 0.0 0.0
  2 6 5  4 1 9  2 6 6  0 0 0  0 0 0  0.333333333333 0.0 0.0
  2 6 6  4 1 10  2 6 5  0 0 0  0 0 0  0.333333333333 0.0 0.0
  2 6 6  4 1 11  0 0 0  0 0 0  0 0 0  0.0 0.0 0.0
  2 6 6  4 1 12  2 6 7  0 0 0  0 0 0  0.333333333333 0.0 0.0
  2 6 7  4 1 13  2 6 6  0 0 0  0 0 0  0.333333333333 0.0 0.0
  2 6 7  4 1 14  0 0 0  0 0 0  0 0 0  0.0 0.0 0.0
  2 6 7  4 1 15  2 6 8  0 0 0  0 0 0  0.333333333333 0.0 0.0
  2 6 8  4 1 16  2 6 7  0 0 0  0 0 0  0.333333333333 0.0 0.0
  2 6 8  4 1 17  0 0 0  0 0 0  0 0 0  0.0 0.0 0.0
  2 6 8  4 1 18  2 6 9  0 0 0  0 0 0  0.333333333333 0.0 0.0
  2 6 3  5 1 1  2 6 2  0 0 0  0 0 0  0.333333333333 0.0 0.0
  2 6 3  5 1 2  0 0 0  0 0 0  0 0 0  0.0 0.0 0.0
  2 6 3  5 1 3  2 6 4  0 0 0  0 0 0  0.333333333333 0.0 0.0
  2 6 4  5 1 4  2 6 3  0 0 0  0 0 0  0.333333333333 0.0 0.0
  2 6 4  5 1 5  0 0 0  0 0 0  0 0 0  0.0 0.0 0.0
  2 6 4  5 1 6  2 6 5  0 0 0  0 0 0  0.333333333333 0.0 0.0
  2 6 5  5 1 7  2 6 4  0 0 0  0 0 0  0.333333333333 0.0 0.0
  2 6 5  5 1 8  0 0 0  0 0 0  0 0 0  0.0 0.0 0.0
  2 6 5  5 1 9  2 6 6  0 0 0  0 0 0  0.333333333333 0.0 0.0
  2 6 6  5 1 10  2 6 5  0 0 0  0 0 0  0.333333333333 0.0 0.0
  2 6 6  5 1 11  0 0 0  0 0 0  0 0 0  0.0 0.0 0.0
  2 6 6  5 1 12  2 6 7  0 0 0  0 0 0  0.333333333333 0.0 0.0
  2 6 7  5 1 13  2 6 6  0 0 0  0 0 0  0.333333333333 0.0 0.0
  2 6 7  5 1 14  0 0 0  0 0 0  0 0 0  0.0 0.0 0.0
  2 6 7  5 1 15  2 6 8  0 0 0  0 0 0  0.333333333333 0.0 0.0
  2 6 8  5 1 16  2 6 7  0 0 0  0 0 0  0.333333333333 0.0 0.0
  2 6 8  5 1 17  0 0 0  0 0 0  0 0 0  0.0 0.0 0.0
  2 6 8  5 1 18  2 6 9  0 0 0  0 0 0  0.333333333333 0.0 0.0
  2 6 3  6 1 1  2 6 2  0 0 0  0 0 0  0.333333333333 0.0 0.0
  2 6 3  6 1 2  0 0 0  0 0 0  0 0 0  0.0 0.0 0.0
  2 6 3  6 1 3  2 6 4  0 0 0  0 0 0  0.333333333333 0.0 0.0
  2 6 4  6 1 4  2 6 3  0 0 0  0 0 0  0.333333333333 0.0 0.0
  2 6 4  6 1 5  0 0 0  0 0 0  0 0 0  0.0 0.0 0.0
  2 6 4  6 1 6  2 6 5  0 0 0  0 0 0  0.333333333333 0.0 0.0
  2 6 5  6 1 7  2 6 4  0 0 0  0 0 0  0.333333333333 0.0 0.0
  2 6 5  6 1 8  0 0 0  0 0 0  0 0 0  0.0 0.0 0.0
  2 6 5  6 1 9  2 6 6  0 0 0  0 0 0  0.333333333333 0.0 0.0
  2 6 6  6 1 10  2 6 5  0 0 0  0 0 0  0.333333333333 0.0 0.0
  2 6 6  6 1 11  0 0 0  0 0 0  0 0 0  0.0 0.0 0.0
  2 6 6  6 1 12  2 6 7  0 0 0  0 0 0  0.333333333333 0.0 0.0
  2 6 7  6 1 13  2 6 6  0 0 0  0 0 0  0.333333333333 0.0 0.0
  2 6 7  6 1 14  0 0 0  0 0 0  0 0 0  0.0 0.0 0.0
  2 6 7  6 1 15  2 6 8  0 0 0  0 0 0  0.333333333333 0.0 0.0
  2 6 8  6 1 16  2 6 7  0 0 0  0 0 0  0.333333333333 0.0 0.0
  2 6 8  6 1 17  0 0 0  0 0 0  0 0 0  0.0 0.0 0.0
  2 6 8  6 1 18  2 6 9  0 0 0  0 0 0  0.333333333333 0.0 0.0
  1 7 2  1 1 1  1 6 2  0 0 0  0 0 0  0.333333333333 0.0 0.0
  1 7 2  1 2 1  0 0 0  0 0 0  0 0 0  0.0 0.0 0.0
  1 7 2  1 3 1  1 8 2  0 0 0  0 0 0  0.333333333333 0.0 0.0
  1 8 2  1 4 1  1 7 2  0 0 0  0 0 0  0.333333333333 0.0 0.0
  1 8 2  1 5 1  0 0 0  0 0 0  0 0 0  0.0 0.0 0.0
  1 8 2  1 6 1  1 9 2  0 0 0  0 0 0  0.333333333333 0.0 0.0
  1 9 2  1 7 1  1 8 2  0 0 0  0 0 0  0.333333333333 0.0 0.0
  1 9 2  1 8 1  0 0 0  0 0 0  0 0 0  0.0 0.0 0.0
  1 9 2  1 9 1  1 10 2  0 0 0  0 0 0  0.333333333333 0.0 0.0
  1 10 2  1 10 1  1 9 2  0 0 0  0 0 0  0.333333333333 0.0 0.0
  1 10 2  1 11 1  0 0 0  0 0 0  0 0 0  0.0 0.0 0.0
  1 10 2  1 12 1  1 11 2  0 0 0  0 0 0  0.333333333333 0.0 0.0
  1 11 2  1 13 1  1 10 2  0 0 0  0 0 0  0.333333333333 0.0 0.0
  1 11 2  1 14 1  0 0 0  0 0 0  0 0 0  0.0 0.0 0.0
  1 11 2  1 15 1  1 12 2  0 0 0  0 0 0  0.333333333333 0.0 0.0
  1 7 2  2 1 1  1 6 2  0 0 0  0 0 0  0.333333333333 0.0 0.0
  1 7 2  2 2 1  0 0 0  0 0 0  0 0 0  0.0 0.0 0.0
  1 7 2  2 3 1  1 8 2  0 0 0  0 0 0  0.333333333333 0.0 0.0
  1 8 2  2 4 1  1 7 2  0 0 0  0 0 0  0.333333333333 0.0 0.0
  1 8 2  2 5 1  0 0 0  0 0 0  0 0 0  0.0 0.0 0.0
  1 8 2  2 6 1  1 9 2  0 0 0  0 0 0  0.333333333333 0.0 0.0
  1 9 2  2 7 1  1 8 2  0 0 0  0 0 0  0.333333333333 0.0 0.0
  1 9 2  2 8 1  0 0 0  0 0 0  0 0 0  0.0 0.0 0.0
  1 9 2  2 9 1  1 10 2  0 0 0  0 0 0  0.333333333333 0.0 0.0
  1 10 2  2 10 1  1 9 2  0 0 0  0 0 0  0.333333333333 0.0 0.0
  1 10 2  2 11 1  0 0 0  0 0 0  0 0 0  0.0 0.0 0.0
  1 10 2  2 12 1  1 11 2  0 0 0  0 0 0  0.333333333333 0.0 0.0
  1 11 2  2 13 1  1 10 2  0 0 0  0 0 0  0.333333333333 0.0 0.0
  1 11 2  2 14 1  0 0 0  0 0 0  0 0 0  0.0 0.0 0.0
  1 11 2  2 15 1  1 12 2  0 0 0  0 0 0  0.333333333333 0.0 0.0
  1 7 2  3 1 1  1 6 2  0 0 0  0 0 0  0.333333333333 0.0 0.0
  1 7 2  3 2 1  0 0 0  0 0 0  0 0 0  0.0 0.0 0.0
  1 7 2  3 3 1  1 8 2  0 0 0  0 0 0  0.333333333333 0.0 0.0
  1 8 2  3 4 1  1 7 2  0 0 0  0 0 0  0.333333333333 0.0 0.0
  1 8 2  3 5 1  0 0 0  0 0 0  0 0 0  0.0 0.0 0.0
  1 8 2  3 6 1  1 9 2  0 0 0  0 0 0  0.333333333333 0.0 0.0
  1 9 2  3 7 1  1 8 2  0 0 0  0 0 0  0.333333333333 0.0 0.0
  1 9 2  3 8 1  0 0 0  0 0 0  0 0 0  0.0 0.0 0.0
  1 9 2  3 9 1  1 10 2  0 0 0  0 0 0  0.333333333333 0.0 0.0
  1 10 2  3 10 1  1 9 2  0 0 0  0 0 0  0.333333333333 0.0 0.0
  1 10 2  3 11 1  0 0 0  0 0 0  0 0 0  0.0 0.0 0.0
  1 10 2  3 12 1  1 11 2  0 0 0  0 0 0  0.333333333333 0.0 0.0
  1 11 2  3 13 1  1 10 2  0 0 0  0 0 0  0.333333333333 0.0 0.0
  1 11 2  3 14 1  0 0 0  0 0 0  0 0 0  0.0 0.0 0.0
  1 11 2  3 15 1  1 12 2  0 0 0  0 0 0  0.333333333333 0.0 0.0
  2 7 2  4 1 1  2 6 2  0 0 0  0 0 0  0.333333333333 0.0 0.0
  2 7 2  4 2 1  0 0 0  0 0 0  0 0 0  0.0 0.0 0.0
  2 7 2  4 3 1  2 8 2  0 0 0  0 0 0  0.333333333333 0.0 0.0
  2 8 2  4 4 1  2 7 2  0 0 0  0 0 0  0.333333333333 0.0 0.0
  2 8 2  4 5 1  0 0 0  0 0 0  0 0 0  0.0 0.0 0.0
  2 8 2  4 6 1  2 9 2  0 0 0  0 0 0  0.333333333333 0.0 0.0
  2 9 2  4 7 1  2 8 2  0 0 0  0 0 0  0.333333333333 0.0 0.0
  2 9 2  4 8 1  0 0 0  0 0 0  0 0 0  0.0 0.0 0.0
  2 9 2  4 9 1  2 10 2  0 0 0  0 0 0  0.333333333333 0.0 0.0
  2 10 2  4 10 1  2 9 2  0 0 0  0 0 0  0.333333333333 0.0 0.0
  2 10 2  4 11 1  0 0 0  0 0 0  0 0 0  0.0 0.0 0.0
  2 10 2  4 12 1  2 11 2  0 0 0  0 0 0  0.333333333333 0.0 0.0
  2 11 2  4 13 1  2 10 2  0 0 0  0 0 0  0.333333333333 0.0 0.0
  2 11 2  4 14 1  0 0 0  0 0 0  0 0 0  0.0 0.0 0.0
  2 11 2  4 15 1  2 12 2  0 0 0  0 0 0  0.333333333333 0.0 0.0
  2 7 2  5 1 1  2 6 2  0 0 0  0 0 0  0.333333333333 0.0 0.0
  2 7 2  5 2 1  0 0 0  0 0 0  0 0 0  0.0 0.0 0.0
  2 7 2  5 3 1  2 8 2  0 0 0  0 0 0  0.333333333333 0.0 0.0
  2 8 2  5 4 1  2 7 2  0 0 0  0 0 0  0.333333333333 0.0 0.0
  2 8 2  5 5 1  0 0 0  0 0 0  0 0 0  0.0 0.0 0.0
  2 8 2  5 6 1  2 9 2  0 0 0  0 0 0  0.333333333333 0.0 0.0
  2 9 2  5 7 1  2 8 2  0 0 0  0 0 0  0.333333333333 0.0 0.0
  2 9 2  5 8 1  0 0 0  0 0 0  0 0 0  0.0 0.0 0.0
  2 9 2  5 9 1  2 10 2  0 0 0  0 0 0  0.333333333333 0.0 0.0
  2 10 2  5 10 1  2 9 2  0 0 0  0 0 0  0.333333333333 0.0 0.0
  2 10 2  5 11 1  0 0 0  0 0 0  0 0 0  0.0 0.0 0.0
  2 10 2  5 12 1  2 11 2  0 0 0  0 0 0  0.333333333333 0.0 0.0
  2 11 2  5 13 1  2 10 2  0 0 0  0 0 0  0.333333333333 0.0 0.0
  2 11 2  5 14 1  0 0 0  0 0 0  0 0 0  0.0 0.0 0.0
  2 11 2  5 15 1  2 12 2  0 0 0  0 0 0  0.333333333333 0.0 0.0
  2 7 2  6 1 1  2 6 2  0 0 0  0 0 0  0.333333333333 0.0 0.0
  2 7 2  6 2 1  0 0 0  0 0 0  0 0 0  0.0 0.0 0.0
  2 7 2  6 3 1  2 8 2  0 0 0  0 0 0  0.333333333333 0.0 0.0
  2 8 2  6 4 1  2 7 2  0 0 0  0 0 0  0.333333333333 0.0 0.0
  2 8 2  6 5 1  0 0 0  0 0 0  0 0 0  0.0 0.0 0.0
  2 8 2  6 6 1  2 9 2  0 0 0  0 0 0  0.333333333333 0.0 0.0
  2 9 2  6 7 1  2 8 2  0 0 0  0 0 0  0.333333333333 0.0 0.0
  2 9 2  6 8 1  0 0 0  0 0 0  0 0 0  0.0 0.0 0.0
  2 9 2  6 9 1  2 10 2  0 0 0  0 0 0  0.333333333333 0.0 0.0
  2 10 2  6 10 1  2 9 2  0 0 0  0 0 0  0.333333333333 0.0 0.0
  2 10 2  6 11 1  0 0 0  0 0 0  0 0 0  0.0 0.0 0.0
  2 10 2  6 12 1  2 11 2  0 0 0  0 0 0  0.333333333333 0.0 0.0
  2 11 2  6 13 1  2 10 2  0 0 0  0 0 0  0.333333333333 0.0 0.0
  2 11 2  6 14 1  0 0 0  0 0 0  0 0 0  0.0 0.0 0.0
  2 11 2  6 15 1  2 12 2  0 0 0  0 0 0  0.333333333333 0.0 0.0
  1 7 9  1 1 18  1 6 9  0 0 0  0 0 0  0.333333333333 0.0 0.0
  1 7 9  1 2 18  0 0 0  0 0 0  0 0 0  0.0 0.0 0.0
  1 7 9  1 3 18  1 8 9  0 0 0  0 0 0  0.333333333333 0.0 0.0
  1 8 9  1 4 18  1 7 9  0 0 0  0 0 0  0.333333333333 0.0 0.0
  1 8 9  1 5 18  0 0 0  0 0 0  0 0 0  0.0 0.0 0.0
  1 8 9  1 6 18  1 9 9  0 0 0  0 0 0  0.333333333333 0.0 0.0
  1 9 9  1 7 18  1 8 9  0 0 0  0 0 0  0.333333333333 0.0 0.0
  1 9 9  1 8 18  0 0 0  0 0 0  0 0 0  0.0 0.0 0.0
  1 9 9  1 9 18  1 10 9  0 0 0  0 0 0  0.333333333333 0.0 0.0
  1 10 9  1 10 18  1 9 9  0 0 0  0 0 0  0.333333333333 0.0 0.0
  1 10 9  1 11 18  0 0 0  0 0 0  0 0 0  0.0 0.0 0.0
  1 10 9  1 12 18  1 11 9  0 0 0  0 0 0  0.333333333333 0.0 0.0
  1 11 9  1 13 18  1 10 9  0 0 0  0 0 0  0.333333333333 0.0 0.0
  1 11 9  1 14 18  0 0 0  0 0 0  0 0 0  0.0 0.0 0.0
  1 11 9  1 15 18  1 12 9  0 0 0  0 0 0  0.333333333333 0.0 0.0
  1 7 9  2 1 18  1 6 9  0 0 0  0 0 0  0.333333333333 0.0 0.0
  1 7 9  2 2 18  0 0 0  0 0 0  0 0 0  0.0 0.0 0.0
  1 7 9  2 3 18  1 8 9  0 0 0  0 0 0  0.333333333333 0.0 0.0
  1 8 9  2 4 18  1 7 9  0 0 0  0 0 0  0.333333333333 0.0 0.0
  1 8 9  2 5 18  0 0 0  0 0 0  0 0 0  0.0 0.0 0.0
  1 8 9  2 6 18  1 9 9  0 0 0  0 0 0  0.333333333333 0.0 0.0
  1 9 9  2 7 18  1 8 9  0 0 0  0 0 0  0.333333333333 0.0 0.0
  1 9 9  2 8 18  0 0 0  0 0 0  0 0 0  0.0 0.0 0.0
  1 9 9  2 9 18  1 10 9  0 0 0  0 0 0  0.333333333333 0.0 0.0
  1 10 9  2 10 18  1 9 9  0 0 0  0 0 0  0.333333333333 0.0 0.0
  1 10 9  2 11 18  0 0 0  0 0 0  0 0 0  0.0 0.0 0.0
  1 10 9  2 12 18  1 11 9  0 0 0  0 0 0  0.333333333333 0.0 0.0
  1 11 9  2 13 18  1 10 9  0 0 0  0 0 0  0.333333333333 0.0 0.0
  1 11 9  2 14 18  0 0 0  0 0 0  0 0 0  0.0 0.0 0.0
  1 11 9  2 15 18  1 12 9  0 0 0  0 0 0  0.333333333333 0.0 0.0
  1 7 9  3 1 18  1 6 9  0 0 0  0 0 0  0.333333333333 0.0 0.0
  1 7 9  3 2 18  0 0 0  0 0 0  0 0 0  0.0 0.0 0.0
  1 7 9  3 3 18  1 8 9  0 0 0  0 0 0  0.333333333333 0.0 0.0
  1 8 9  3 4 18  1 7 9  0 0 0  0 0 0  0.333333333333 0.0 0.0
  1 8 9  3 5 18  0 0 0  0 0 0  0 0 0  0.0 0.0 0.0
  1 8 9  3 6 18  1 9 9  0 0 0  0 0 0  0.333333333333 0.0 0.0
  1 9 9  3 7 18  1 8 9  0 0 0  0 0 0  0.333333333333 0.0 0.0
  1 9 9  3 8 18  0 0 0  0 0 0  0 0 0  0.0 0.0 0.0
  1 9 9  3 9 18  1 10 9  0 0 0  0 0 0  0.333333333333 0.0 0.0
  1 10 9  3 10 18  1 9 9  0 0 0  0 0 0  0.333333333333 0.0 0.0
  1 10 9  3 11 18  0 0 0  0 0 0  0 0 0  0.0 0.0 0.0
  1 10 9  3 12 18  1 11 9  0 0 0  0 0 0  0.333333333333 0.0 0.0
  1 11 9  3 13 18  1 10 9  0 0 0  0 0 0  0.333333333333 0.0 0.0
  1 11 9  3 14 18  0 0 0  0 0 0  0 0 0  0.0 0.0 0.0
  1 11 9  3 15 18  1 12 9  0 0 0  0 0 0  0.333333333333 0.0 0.0
  2 7 9  4 1 18  2 6 9  0 0 0  0 0 0  0.333333333333 0.0 0.0
  2 7 9  4 2 18  0 0 0  0 0 0  0 0 0  0.0 0.0 0.0
  2 7 9  4 3 18  2 8 9  0 0 0  0 0 0  0.333333333333 0.0 0.0
  2 8 9  4 4 18  2 7 9  0 0 0  0 0 0  0.333333333333 0.0 0.0
  2 8 9  4 5 18  0 0 0  0 0 0  0 0 0  0.0 0.0 0.0
  2 8 9  4 6 18  2 9 9  0 0 0  0 0 0  0.333333333333 0.0 0.0
  2 9 9  4 7 18  2 8 9  0 0 0  0 0 0  0.333333333333 0.0 0.0
  2 9 9  4 8 18  0 0 0  0 0 0  0 0 0  0.0 0.0 0.0
  2 9 9  4 9 18  2 10 9  0 0 0  0 0 0  0.333333333333 0.0 0.0
  2 10 9  4 10 18  2 9 9  0 0 0  0 0 0  0.333333333333 0.0 0.0
  2 10 9  4 11 18  0 0 0  0 0 0  0 0 0  0.0 0.0 0.0
  2 10 9  4 12 18  2 11 9  0 0 0  0 0 0  0.333333333333 0.0 0.0
  2 11 9  4 13 18  2 10 9  0 0 0  0 0 0  0.333333333333 0.0 0.0
  2 11 9  4 14 18  0 0 0  0 0 0  0 0 0  0.0 0.0 0.0
  2 11 9  4 15 18  2 12 9  0 0 0  0 0 0  0.333333333333 0.0 0.0
  2 7 9  5 1 18  2 6 9  0 0 0  0 0 0  0.333333333333 0.0 0.0
  2 7 9  5 2 18  0 0 0  0 0 0  0 0 0  0.0 0.0 0.0
  2 7 9  5 3 18  2 8 9  0 0 0  0 0 0  0.333333333333 0.0 0.0
  2 8 9  5 4 18  2 7 9  0 0 0  0 0 0  0.333333333333 0.0 0.0
  2 8 9  5 5 18  0 0 0  0 0 0  0 0 0  0.0 0.0 0.0
  2 8 9  5 6 18  2 9 9  0 0 0  0 0 0  0.333333333333 0.0 0.0
  2 9 9  5 7 18  2 8 9  0 0 0  0 0 0  0.333333333333 0.0 0.0
  2 9 9  5 8 18  0 0 0  0 0 0  0 0 0  0.0 0.0 0.0
  2 9 9  5 9 18  2 10 9  0 0 0  0 0 0  0.333333333333 0.0 0.0
  2 10 9  5 10 18  2 9 9  0 0 0  0 0 0  0.333333333333 0.0 0.0
  2 10 9  5 11 18  0 0 0  0 0 0  0 0 0  0.0 0.0 0.0
  2 10 9  5 12 18  2 11 9  0 0 0  0 0 0  0.333333333333 0.0 0.0
  2 11 9  5 13 18  2 10 9  0 0 0  0 0 0  0.333333333333 0.0 0.0
  2 11 9  5 14 18  0 0 0  0 0 0  0 0 0  0.0 0.0 0.0
  2 11 9  5 15 18  2 12 9  0 0 0  0 0 0  0.333333333333 0.0 0.0
  2 7 9  6 1 18  2 6 9  0 0 0  0 0 0  0.333333333333 0.0 0.0
  2 7 9  6 2 18  0 0 0  0 0 0  0 0 0  0.0 0.0 0.0
  2 7 9  6 3 18  2 8 9  0 0 0  0 0 0  0.333333333333 0.0 0.0
  2 8 9  6 4 18  2 7 9  0 0 0  0 0 0  0.333333333333 0.0 0.0
  2 8 9  6 5 18  0 0 0  0 0 0  0 0 0  0.0 0.0 0.0
  2 8 9  6 6 18  2 9 9  0 0 0  0 0 0  0.333333333333 0.0 0.0
  2 9 9  6 7 18  2 8 9  0 0 0  0 0 0  0.333333333333 0.0 0.0
  2 9 9  6 8 18  0 0 0  0 0 0  0 0 0  0.0 0.0 0.0
  2 9 9  6 9 18  2 10 9  0 0 0  0 0 0  0.333333333333 0.0 0.0
  2 10 9  6 10 18  2 9 9  0 0 0  0 0 0  0.333333333333 0.0 0.0
  2 10 9  6 11 18  0 0 0  0 0 0  0 0 0  0.0 0.0 0.0
  2 10 9  6 12 18  2 11 9  0 0 0  0 0 0  0.333333333333 0.0 0.0
  2 11 9  6 13 18  2 10 9  0 0 0  0 0 0  0.333333333333 0.0 0.0
  2 11 9  6 14 18  0 0 0  0 0 0  0 0 0  0.0 0.0 0.0
  2 11 9  6 15 18  2 12 9  0 0 0  0 0 0  0.333333333333 0.0 0.0
  1 12 3  1 15 1  1 12 2  0 0 0  0 0 0  0.333333333333 0.0 0.0
  1 12 3  1 15 2  0 0 0  0 0 0  0 0 0  0.0 0.0 0.0
  1 12 3  1 15 3  1 12 4  0 0 0  0 0 0  0.333333333333 0.0 0.0
  1 12 4  1 15 4  1 12 3  0 0 0  0 0 0  0.333333333333 0.0 0.0
  1 12 4  1 15 5  0 0 0  0 0 0  0 0 0  0.0 0.0 0.0
  1 12 4  1 15 6  1 12 5  0 0 0  0 0 0  0.333333333333 0.0 0.0
  1 12 5  1 15 7  1 12 4  0 0 0  0 0 0  0.333333333333 0.0 0.0
  1 12 5  1 15 8  0 0 0  0 0 0  0 0 0  0.0 0.0 0.0
  1 12 5  1 15 9  1 12 6  0 0 0  0 0 0  0.333333333333 0.0 0.0
  1 12 6  1 15 10  1 12 5  0 0 0  0 0 0  0.333333333333 0.0 0.0
  1 12 6  1 15 11  0 0 0  0 0 0  0 0 0  0.0 0.0 0.0
  1 12 6  1 15 12  1 12 7  0 0 0  0 0 0  0.333333333333 0.0 0.0
  1 12 7  1 15 13  1 12 6  0 0 0  0 0 0  0.333333333333 0.0 0.0
  1 12 7  1 15 14  0 0 0  0 0 0  0 0 0  0.0 0.0 0.0
  1 12 7  1 15 15  1 12 8  0 0 0  0 0 0  0.333333333333 0.0 0.0
  1 12 8  1 15 16  1 12 7  0 0 0  0 0 0  0.333333333333 0.0 0.0
  1 12 8  1 15 17  0 0 0  0 0 0  0 0 0  0.0 0.0 0.0
  1 12 8  1 15 18  1 12 9  0 0 0  0 0 0  0.333333333333 0.0 0.0
  1 12 3  2 15 1  1 12 2  0 0 0  0 0 0  0.333333333333 0.0 0.0
  1 12 3  2 15 2  0 0 0  0 0 0  0 0 0  0.0 0.0 0.0
  1 12 3  2 15 3  1 12 4  0 0 0  0 0 0  0.333333333333 0.0 0.0
  1 12 4  2 15 4  1 12 3  0 0 0  0 0 0  0.333333333333 0.0 0.0
  1 12 4  2 15 5  0 0 0  0 0 0  0 0 0  0.0 0.0 0.0
  1 12 4  2 15 6  1 12 5  0 0 0  0 0 0  0.333333333333 0.0 0.0
  1 12 5  2 15 7  1 12 4  0 0 0  0 0 0  0.333333333333 0.0 0.0
  1 12 5  2 15 8  0 0 0  0 0 0  0 0 0  0.0 0.0 0.0
  1 12 5  2 15 9  1 12 6  0 0 0  0 0 0  0.333333333333 0.0 0.0
  1 12 6  2 15 10  1 12 5  0 0 0  0 0 0  0.333333333333 0.0 0.0
  1 12 6  2 15 11  0 0 0  0 0 0  0 0 0  0.0 0.0 0.0
  1 12 6  2 15 12  1 12 7  0 0 0  0 0 0  0.333333333333 0.0 0.0
  1 12 7  2 15 13  1 12 6  0 0 0  0 0 0  0.333333333333 0.0 0.0
  1 12 7  2 15 14  0 0 0  0 0 0  0 0 0  0.0 0.0 0.0
  1 12 7  2 15 15  1 12 8  0 0 0  0 0 0  0.333333333333 0.0 0.0
  1 12 8  2 15 16  1 12 7  0 0 0  0 0 0  0.333333333333 0.0 0.0
  1 12 8  2 15 17  0 0 0  0 0 0  0 0 0  0.0 0.0 0.0
  1 12 8  2 15 18  1 12 9  0 0 0  0 0 0  0.333333333333 0.0 0.0
  1 12 3  3 15 1  1 12 2  0 0 0  0 0 0  0.333333333333 0.0 0.0
  1 12 3  3 15 2  0 0 0  0 0 0  0 0 0  0.0 0.0 0.0
  1 12 3  3 15 3  1 12 4  0 0 0  0 0 0  0.333333333333 0.0 0.0
  1 12 4  3 15 4  1 12 3  0 0 0  0 0 0  0.333333333333 0.0 0.0
  1 12 4  3 15 5  0 0 0  0 0 0  0 0 0  0.0 0.0 0.0
  1 12 4  3 15 6  1 12 5  0 0 0  0 0 0  0.333333333333 0.0 0.0
  1 12 5  3 15 7  1 12 4  0 0 0  0 0 0  0.333333333333 0.0 0.0
  1 12 5  3 15 8  0 0 0  0 0 0  0 0 0  0.0 0.0 0.0
  1 12 5  3 15 9  1 12 6  0 0 0  0 0 0  0.333333333333 0.0 0.0
  1 12 6  3 15 10  1 12 5  0 0 0  0 0 0  0.333333333333 0.0 0.0
  1 12 6  3 15 11  0 0 0  0 0 0  0 0 0  0.0 0.0 0.0
  1 12 6  3 15 12  1 12 7  0 0 0  0 0 0  0.333333333333 0.0 0.0
  1 12 7  3 15 13  1 12 6  0 0 0  0 0 0  0.333333333333 0.0 0.0
  1 12 7  3 15 14  0 0 0  0 0 0  0 0 0  0.0 0.0 0.0
  1 12 7  3 15 15  1 12 8  0 0 0  0 0 0  0.333333333333 0.0 0.0
  1 12 8  3 15 16  1 12 7  0 0 0  0 0 0  0.333333333333 0.0 0.0
  1 12 8  3 15 17  0 0 0  0 0 0  0 0 0  0.0 0.0 0.0
  1 12 8  3 15 18  1 12 9  0 0 0  0 0 0  0.333333333333 0.0 0.0
  2 12 3  4 15 1  2 12 2  0 0 0  0 0 0  0.333333333333 0.0 0.0
  2 12 3  4 15 2  0 0 0  0 0 0  0 0 0  0.0 0.0 0.0
  2 12 3  4 15 3  2 12 4  0 0 0  0 0 0  0.333333333333 0.0 0.0
  2 12 4  4 15 4  2 12 3  0 0 0  0 0 0  0.333333333333 0.0 0.0
  2 12 4  4 15 5  0 0 0  0 0 0  0 0 0  0.0 0.0 0.0
  2 12 4  4 15 6  2 12 5  0 0 0  0 0 0  0.333333333333 0.0 0.0
  2 12 5  4 15 7  2 12 4  0 0 0  0 0 0  0.333333333333 0.0 0.0
  2 12 5  4 15 8  0 0 0  0 0 0  0 0 0  0.0 0.0 0.0
  2 12 5  4 15 9  2 12 6  0 0 0  0 0 0  0.333333333333 0.0 0.0
  2 12 6  4 15 10  2 12 5  0 0 0  0 0 0  0.333333333333 0.0 0.0
  2 12 6  4 15 11  0 0 0  0 0 0  0 0 0  0.0 0.0 0.0
  2 12 6  4 15 12  2 12 7  0 0 0  0 0 0  0.333333333333 0.0 0.0
  2 12 7  4 15 13  2 12 6  0 0 0  0 0 0  0.333333333333 0.0 0.0
  2 12 7  4 15 14  0 0 0  0 0 0  0 0 0  0.0 0.0 0.0
  2 12 7  4 15 15  2 12 8  0 0 0  0 0 0  0.333333333333 0.0 0.0
  2 12 8  4 15 16  2 12 7  0 0 0  0 0 0  0.333333333333 0.0 0.0
  2 12 8  4 15 17  0 0 0  0 0 0  0 0 0  0.0 0.0 0.0
  2 12 8  4 15 18  2 12 9  0 0 0  0 0 0  0.333333333333 0.0 0.0
  2 12 3  5 15 1  2 12 2  0 0 0  0 0 0  0.333333333333 0.0 0.0
  2 12 3  5 15 2  0 0 0  0 0 0  0 0 0  0.0 0.0 0.0
  2 12 3  5 15 3  2 12 4  0 0 0  0 0 0  0.333333333333 0.0 0.0
  2 12 4  5 15 4  2 12 3  0 0 0  0 0 0  0.333333333333 0.0 0.0
  2 12 4  5 15 5  0 0 0  0 0 0  0 0 0  0.0 0.0 0.0
  2 12 4  5 15 6  2 12 5  0 0 0  0 0 0  0.333333333333 0.0 0.0
  2 12 5  5 15 7  2 12 4  0 0 0  0 0 0  0.333333333333 0.0 0.0
  2 12 5  5 15 8  0 0 0  0 0 0  0 0 0  0.0 0.0 0.0
  2 12 5  5 15 9  2 12 6  0 0 0  0 0 0  0.333333333333 0.0 0.0
  2 12 6  5 15 10  2 12 5  0 0 0  0 0 0  0.333333333333 0.0 0.0
  2 12 6  5 15 11  0 0 0  0 0 0  0 0 0  0.0 0.0 0.0
  2 12 6  5 15 12  2 12 7  0 0 0  0 0 0  0.333333333333 0.0 0.0
  2 12 7  5 15 13  2 12 6  0 0 0  0 0 0  0.333333333333 0.0 0.0
  2 12 7  5 15 14  0 0 0  0 0 0  0 0 0  0.0 0.0 0.0
  2 12 7  5 15 15  2 12 8  0 0 0  0 0 0  0.333333333333 0.0 0.0
  2 12 8  5 15 16  2 12 7  0 0 0  0 0 0  0.333333333333 0.0 0.0
  2 12 8  5 15 17  0 0 0  0 0 0  0 0 0  0.0 0.0 0.0
  2 12 8  5 15 18  2 12 9  0 0 0  0 0 0  0.333333333333 0.0 0.0
  2 12 3  6 15 1  2 12 2  0 0 0  0 0 0  0.333333333333 0.0 0.0
  2 12 3  6 15 2  0 0 0  0 0 0  0 0 0  0.0 0.0 0.0
  2 12 3  6 15 3  2 12 4  0 0 0  0 0 0  0.333333333333 0.0 0.0
  2 12 4  6 15 4  2 12 3  0 0 0  0 0 0  0.333333333333 0.0 0.0
  2 12 4  6 15 5  0 0 0  0 0 0  0 0 0  0.0 0.0 0.0
  2 12 4  6 15 6  2 12 5  0 0 0  0 0 0  0.333333333333 0.0 0.0
  2 12 5  6 15 7  2 12 4  0 0 0  0 0 0  0.333333333333 0.0 0.0
  2 12 5  6 15 8  0 0 0  0 0 0  0 0 0  0.0 0.0 0.0
  2 12 5  6 15 9  2 12 6  0 0 0  0 0 0  0.333333333333 0.0 0.0
  2 12 6  6 15 10  2 12 5  0 0 0  0 0 0  0.333333333333 0.0 0.0
  2 12 6  6 15 11  0 0 0  0 0 0  0 0 0  0.0 0.0 0.0
  2 12 6  6 15 12  2 12 7  0 0 0  0 0 0  0.333333333333 0.0 0.0
  2 12 7  6 15 13  2 12 6  0 0 0  0 0 0  0.333333333333 0.0 0.0
  2 12 7  6 15 14  0 0 0  0 0 0  0 0 0  0.0 0.0 0.0
  2 12 7  6 15 15  2 12 8  0 0 0  0 0 0  0.333333333333 0.0 0.0
  2 12 8  6 15 16  2 12 7  0 0 0  0 0 0  0.333333333333 0.0 0.0
  2 12 8  6 15 17  0 0 0  0 0 0  0 0 0  0.0 0.0 0.0
  2 12 8  6 15 18  2 12 9  0 0 0  0 0 0  0.333333333333 0.0 0.0
  3 7 3  6 1 1  3 7 2  3 6 2  3 6 3  0.261235516153 0.229118704138 0.330439693842
  3 7 3  6 1 2  3 7 4  3 6 3  3 6 4  0.143662839334 0.251409967265 0.10210725887
  3 7 3  6 1 3  3 7 4  3 6 3  3 6 4  0.163806172105 0.266657127444 0.147914761316
  3 7 4  6 1 4  3 7 3  3 6 3  3 6 4  0.261235516153 0.229118704138 0.330439693842
  3 7 4  6 1 5  3 7 5  3 6 4  3 6 5  0.143662839334 0.251409967265 0.10210725887
  3 7 4  6 1 6  3 7 5  3 6 4  3 6 5  0.163806172105 0.266657127444 0.147914761316
  3 7 5  6 1 7  3 7 4  3 6 4  3 6 5  0.261235516153 0.229118704138 0.330439693842
  3 7 5  6 1 8  3 7 6  3 6 5  3 6 6  0.143662839334 0.251409967265 0.10210725887
  3 7 5  6 1 9  3 7 6  3 6 5  3 6 6  0.163806172105 0.266657127444 0.147914761316
  3 7 6  6 1 10  3 7 5  3 6 5  3 6 6  0.261235516153 0.229118704138 0.330439693842
  3 7 6  6 1 11  3 7 7  3 6 6  3 6 7  0.143662839334 0.251409967265 0.10210725887
  3 7 6  6 1 12  3 7 7  3 6 6  3 6 7  0.163806172105 0.266657127444 0.147914761316
  3 7 7  6 1 13  3 7 6  3 6 6  3 6 7  0.261235516153 0.229118704138 0.330439693842
  3 7 7  6 1 14  3 7 8  3 6 7  3 6 8  0.143662839334 0.251409967265 0.10210725887
  3 7 7  6 1 15  3 7 8  3 6 7  3 6 8  0.163806172105 0.266657127444 0.147914761316
  3 7 8  6 1 16  3 7 7  3 6 7  3 6 8  0.261235516153 0.229118704138 0.330439693842
  3 7 8  6 1 17  3 7 9  3 6 8  3 6 9  0.143662839334 0.251409967265 0.10210725887
  3 7 8  6 1 18  3 7 9  3 6 8  3 6 9  0.163806172105 0.266657127444 0.147914761316
  3 7 3  6 2 1  3 8 2  3 8 3  3 7 2  0.153667621219 0.194375875119 0.217318834554
  3 7 3  6 2 2  1 1 1  0 0 0  0 0 0  0.0 0.0 0.0
  3 7 3  6 2 3  3 8 3  3 8 4  3 7 4  0.146629680741 0.257205477579 0.132481075929
  3 7 4  6 2 4  3 8 3  3 8 4  3 7 3  0.153667621219 0.194375875119 0.217318834554
  3 7 4  6 2 5  1 1 1  0 0 0  0 0 0  0.0 0.0 0.0
  3 7 4  6 2 6  3 8 4  3 8 5  3 7 5  0.146629680741 0.257205477579 0.132481075929
  3 7 5  6 2 7  3 8 4  3 8 5  3 7 4  0.153667621219 0.194375875119 0.217318834554
  3 7 5  6 2 8  1 1 1  0 0 0  0 0 0  0.0 0.0 0.0
  3 7 5  6 2 9  3 8 5  3 8 6  3 7 6  0.146629680741 0.257205477579 0.132481075929
  3 7 6  6 2 10  3 8 5  3 8 6  3 7 5  0.153667621219 0.194375875119 0.217318834554
  3 7 6  6 2 11  1 1 1  0 0 0  0 0 0  0.0 0.0 0.0
  3 7 6  6 2 12  3 8 6  3 8 7  3 7 7  0.146629680741 0.257205477579 0.132481075929
  3 7 7  6 2 13  3 8 6  3 8 7  3 7 6  0.153667621219 0.194375875119 0.217318834554
  3 7 7  6 2 14  1 1 1  0 0 0  0 0 0  0.0 0.0 0.0
  3 7 7  6 2 15  3 8 7  3 8 8  3 7 8  0.146629680741 0.257205477579 0.132481075929
  3 7 8  6 2 16  3 8 7  3 8 8  3 7 7  0.153667621219 0.194375875119 0.217318834554
  3 7 8  6 2 17  1 1 1  0 0 0  0 0 0  0.0 0.0 0.0
  3 7 8  6 2 18  3 8 8  3 8 9  3 7 9  0.146629680741 0.257205477579 0.132481075929
  3 7 3  6 3 1  3 8 2  3 8 3  3 7 2  0.197493316062 0.18234302599 0.225177025823
  3 7 3  6 3 2  3 8 3  3 8 4  3 7 4  0.236191036456 0.188952830817 0.102474059816
  3 7 3  6 3 3  3 8 3  3 8 4  3 7 4  0.248392357719 0.20627862688 0.152586212943
  3 7 4  6 3 4  3 8 3  3 8 4  3 7 3  0.197493316062 0.18234302599 0.225177025823
  3 7 4  6 3 5  3 8 4  3 8 5  3 7 5  0.236191036456 0.188952830817 0.102474059816
  3 7 4  6 3 6  3 8 4  3 8 5  3 7 5  0.248392357719 0.20627862688 0.152586212943
  3 7 5  6 3 7  3 8 4  3 8 5  3 7 4  0.197493316062 0.18234302599 0.225177025823
  3 7 5  6 3 8  3 8 5  3 8 6  3 7 6  0.236191036456 0.188952830817 0.102474059816
  3 7 5  6 3 9  3 8 5  3 8 6  3 7 6  0.248392357719 0.20627862688 0.152586212943
  3 7 6  6 3 10  3 8 5  3 8 6  3 7 5  0.197493316062 0.18234302599 0.225177025823
  3 7 6  6 3 11  3 8 6  3 8 7  3 7 7  0.236191036456 0.188952830817 0.102474059816
  3 7 6  6 3 12  3 8 6  3 8 7  3 7 7  0.248392357719 0.20627862688 0.152586212943
  3 7 7  6 3 13  3 8 6  3 8 7  3 7 6  0.197493316062 0.18234302599 0.225177025823
  3 7 7  6 3 14  3 8 7  3 8 8  3 7 8  0.236191036456 0.188952830817 0.102474059816
  3 7 7  6 3 15  3 8 7  3 8 8  3 7 8  0.248392357719 0.20627862688 0.152586212943
  3 7 8  6 3 16  3 8 7  3 8 8  3 7 7  0.197493316062 0.18234302599 0.225177025823
  3 7 8  6 3 17  3 8 8  3 8 9  3 7 9  0.236191036456 0.188952830817 0.102474059816
  3 7 8  6 3 18  3 8 8  3 8 9  3 7 9  0.248392357719 0.20627862688 0.152586212943
  3 8 3  6 4 1  3 8 2  3 7 2  3 7 3  0.261235516153 0.229118704138 0.330439693842
  3 8 3  6 4 2  3 8 4  3 7 3  3 7 4  0.143662839334 0.251409967265 0.10210725887
  3 8 3  6 4 3  3 8 4  3 7 3  3 7 4  0.163806172105 0.266657127444 0.147914761316
  3 8 4  6 4 4  3 8 3  3 7 3  3 7 4  0.261235516153 0.229118704138 0.330439693842
  3 8 4  6 4 5  3 8 5  3 7 4  3 7 5  0.143662839334 0.251409967265 0.10210725887
  3 8 4  6 4 6  3 8 5  3 7 4  3 7 5  0.163806172105 0.266657127444 0.147914761316
  3 8 5  6 4 7  3 8 4  3 7 4  3 7 5  0.261235516153 0.229118704138 0.330439693842
  3 8 5  6 4 8  3 8 6  3 7 5  3 7 6  0.143662839334 0.251409967265 0.10210725887
  3 8 5  6 4 9  3 8 6  3 7 5  3 7 6  0.163806172105 0.266657127444 0.147914761316
  3 8 6  6 4 10  3 8 5  3 7 5  3 7 6  0.261235516153 0.229118704138 0.330439693842
  3 8 6  6 4 11  3 8 7  3 7 6  3 7 7  0.143662839334 0.251409967265 0.10210725887
  3 8 6  6 4 12  3 8 7  3 7 6  3 7 7  0.163806172105 0.266657127444 0.147914761316
  3 8 7  6 4 13  3 8 6  3 7 6  3 7 7  0.261235516153 0.229118704138 0.330439693842
  3 8 7  6 4 14  3 8 8  3 7 7  3 7 8  0.143662839334 0.251409967265 0.10210725887
  3 8 7  6 4 15  3 8 8  3 7 7  3 7 8  0.163806172105 0.266657127444 0.147914761316
  3 8 8  6 4 16  3 8 7  3 7 7  3 7 8  0.261235516153 0.229118704138 0.330439693842
  3 8 8  6 4 17  3 8 9  3 7 8  3 7 9  0.143662839334 0.251409967265 0.10210725887
  3 8 8  6 4 18  3 8 9  3 7 8  3 7 9  0.163806172105 0.266657127444 0.147914761316
  3 8 3  6 5 1  3 9 2  3 9 3  3 8 2  0.153667621219 0.194375875119 0.217318834554
  3 8 3  6 5 2  1 1 1  0 0 0  0 0 0  0.0 0.0 0.0
  3 8 3  6 5 3  3 9 3  3 9 4  3 8 4  0.146629680741 0.257205477579 0.132481075929
  3 8 4  6 5 4  3 9 3  3 9 4  3 8 3  0.153667621219 0.194375875119 0.217318834554
  3 8 4  6 5 5  1 1 1  0 0 0  0 0 0  0.0 0.0 0.0
  3 8 4  6 5 6  3 9 4  3 9 5  3 8 5  0.146629680741 0.257205477579 0.132481075929
  3 8 5  6 5 7  3 9 4  3 9 5  3 8 4  0.153667621219 0.194375875119 0.217318834554
  3 8 5  6 5 8  1 1 1  0 0 0  0 0 0  0.0 0.0 0.0
  3 8 5  6 5 9  3 9 5  3 9 6  3 8 6  0.146629680741 0.257205477579 0.132481075929