begin options
  print_option summary
end options

begin nonlinear
	outer_dvclose 1.e-5
	outer_maximum 12625
	under_relaxation none dbd
	under_relaxation_theta 0.85
	under_relaxation_kappa 0.100000e-03
	under_relaxation_gamma 0.
	under_relaxation_momentum 0.1
	backtracking_number 0
	backtracking_tolerance 1.1
	backtracking_reduction_factor 0.7
	backtracking_residual_limit 1.
	#linear_solver xmd
end nonlinear


begin linear
	inner_dvclose 1.0e-5
	inner_rclose 1.0e-3
	#l2norm_rclose
	inner_maximum 10
	linear_acceleration cg
	scaling_method none
	reordering_method none
	relaxation_factor 1.
end linear


begin xmd
	inner_dvclose 1.0e-5
  inner_maximum 100
	linear_acceleration bicgstab
	reordering_method none
	preconditioner_levels 5
	number_orthogonalizations 7
	inner_rclose 0.
	preconditioner_drop_tolerance 1.0e-5
end xmd
