BEGIN OPTIONS
  TIME_UNITS SECONDS
END OPTIONS

BEGIN DIMENSIONS
  NPER 1
END DIMENSIONS

BEGIN PERIODDATA
 5.000E+00         1 1.000E+00           STRESS PERIOD 1
END PERIODDATA
