#option block.  Note -- no comments allowed on auxiliary line
begin options
  PRINT_INPUT
  PRINT_FLOWS
end options

begin dimensions
  MAXBOUND 2
end dimensions

begin period 1
         1        01         1       10.     1000.
         1        01        10        5.     1000.
end period
