BEGIN OPTIONS
  LENGTH_UNITS METERS
END OPTIONS

BEGIN DIMENSIONS
  NLAY 1
  NROW 1
  NCOL 10
END DIMENSIONS

BEGIN GRIDDATA
  delr
    CONSTANT     1000.  DELR
  delc
    CONSTANT       50.  DELC
  top LAYERED
    CONSTANT     1.000000E+00  TOP
  botm LAYERED
    CONSTANT     0.000000E+00  TOP
  idomain LAYERED
    CONSTANT                1
     
END GRIDDATA




