BEGIN OPTIONS
  PRINT_FLOWS
  AUXILIARY temperature concentration
  BOUNDNAMES
  UNIT_CONVERSION 1.00
  TS6 FILEIN time.ts
END OPTIONS

#dimension block is required
BEGIN DIMENSIONS
  NREACHES 10
END DIMENSIONS

BEGIN PACKAGEDATA
#rch    k    i    j   length width          slope     sbot bthick      hk rough nconn ustrf ndiv  temp conc
 001    1    1  001    1000.    20  6.9999998E-04 10.65000    1.5    0.02  0.04     1     1    0     1    2 reach_a
 002    1    1  002    1000.    20  6.9999998E-04 9.950000    1.5    0.02  0.04     2     1    0     1 conc reach_b
 003    1    1  003    1000.    20  6.9999998E-04 9.250000    1.5    0.02  0.04     2     1    0     1    2 reach_c
 004    1    1  004    1000.    20  6.9999998E-04 8.550000    1.5    0.02  0.04     2     1    0     1    2 reach_d
 005    1    1  005    1000.    20  6.9999998E-04 7.850000    1.5    0.02  0.04     2     1    0     1    2 reach_e
 006    1    1  006    1000.    20  6.9999998E-04 7.150000    1.5    0.02  0.04     2     1    0     1    2 reach_f
 007    1    1  007    1000.    20  6.9999998E-04 6.450000    1.5    0.02  0.04     2     1    0     1    2 reach_g
 008    1    1  008    1000.    20  6.9999998E-04 5.750000    1.5    0.02  0.04     2     1    0     1    2 reach_h
 009    1    1  009    1000.    20  6.9999998E-04 5.050000    1.5    0.02  0.04     2     1    0     1    2 reach_i
 010    1    1  010    1000.    20  6.9999998E-04 4.350000    1.5    0.02  0.04     1     1    0     1    2 reach_j
END PACKAGEDATA

BEGIN CONNECTIONDATA
001     -002 
002 001 -003
003 002 -004
004 003 -005
005 004 -006
006 005 -007
007 006 -008
008 007 -009
009 008 -010
010 009
END CONNECTIONDATA  

begin period 1  
  1 inflow 25.
  10 auxiliary concentration conc
  1  auxiliary temperature  temp   
end period   

