# STO8 input file, prepared by MF5to6 on 8/3/2016 at 10:39:13.

BEGIN Options
END Options

BEGIN GRIDDATA
  ICONVERT LAYERED
    CONSTANT  0
  SS LAYERED
    CONSTANT   0.10000000E-04
  SY LAYERED
    CONSTANT    0.0000000    
END GRIDDATA
