# sms8 input file, prepared by mf5to6 on 8/3/2016 at 10:39:13.

begin options
  print_option  summary
  complexity  simple
end options

begin nonlinear
  outer_dvclose   0.1000000e-05
  outer_maximum  500
  under_relaxation  none
  under_relaxation_theta    0.000000    
  under_relaxation_kappa    0.000000    
  under_relaxation_gamma    0.000000    
  under_relaxation_momentum    0.000000    
end nonlinear

begin linear
  inner_maximum  100
  inner_dvclose   0.1000000e-06
  inner_rclose   0.1000000e-02
  linear_acceleration  cg
  relaxation_factor    1.000000    
  number_orthogonalizations  2
  reordering_method  none
end linear
