# TDIS8 input file, prepared by MF5to6 on 8/3/2016 at 10:39:13.

BEGIN Options
  TIME_UNITS DAYS
END Options

BEGIN Dimensions
  NPER 1
END Dimensions

BEGIN PERIODDATA
    10000.000              50    1.2000000      Items: PERLEN NSTP TSMULT
END PERIODDATA
