# OC8 input file, prepared by MF5to6 on 8/3/2016 at 10:39:13.

BEGIN Options
  HEAD FILEOUT  test020_mawconfined.hds
  BUDGET FILEOUT test020_mawconfined.cbc
  HEAD PRINT_FORMAT  COLUMNS 10  WIDTH 11  DIGITS 4  GENERAL
END Options

BEGIN PERIOD 1
  PRINT BUDGET ALL
  SAVE HEAD ALL
  PRINT HEAD ALL
  SAVE BUDGET ALL
END PERIOD
