# Output control package file for MODFLOW, generated by Flopy.
head save unit 51   #mfusg_C.hds
drawdown save unit 52
period 1 step 10
  print budget
  print head
  save head
