# IMS8 input file, prepared by MF5to6 on 8/23/2016 at 10:22:04.

BEGIN Options
  PRINT_OPTION  SUMMARY
  COMPLEXITY  SIMPLE
END Options

BEGIN Nonlinear
  OUTER_MAXIMUM 12000
  OUTER_HCLOSE 1e-5
END Nonlinear

BEGIN LINEAR
	INNER_HCLOSE 1e-6
END LINEAR
