BEGIN OPTIONS
  PRINT_INPUT
  BOUNDNAMES
  PRINT_STAGE
  SAVE_FLOWS
  STAGE FILEOUT lake_harbaugh.stage.bin
  OBS6 FILEIN mv.lak.obs
END OPTIONS

BEGIN DIMENSIONS
  NLAKES 1
  NOUTLETS 0
END DIMENSIONS

BEGIN PACKAGEDATA
# lakeno  strt      lakeconn   boundname
  1       11.0      105        LAKE_HARBAUGH
END PACKAGEDATA

BEGIN CONNECTIONDATA
# lakeno iconn layer     row       column claketype  bedleak  belev telev connlen connwidth
  1      1     2         4         4      VERTICAL   none     0.0   0.0   0.0     0.0 
  1      2     2         4         5      VERTICAL   none     0.0   0.0   0.0     0.0 
  1      3     2         4         6      VERTICAL   none     0.0   0.0   0.0     0.0 
  1      4     2         4         7      VERTICAL   none     0.0   0.0   0.0     0.0 
  1      5     2         5         3      VERTICAL   none     0.0   0.0   0.0     0.0 
  1      6     2         5         4      VERTICAL   none     0.0   0.0   0.0     0.0 
  1      7     2         5         5      VERTICAL   none     0.0   0.0   0.0     0.0 
  1      8     2         5         6      VERTICAL   none     0.0   0.0   0.0     0.0 
  1      9     2         5         7      VERTICAL   none     0.0   0.0   0.0     0.0 
  1     10     2         6         3      VERTICAL   none     0.0   0.0   0.0     0.0 
  1     11     2         6         4      VERTICAL   none     0.0   0.0   0.0     0.0 
  1     12     2         6         5      VERTICAL   none     0.0   0.0   0.0     0.0 
  1     13     2         6         6      VERTICAL   none     0.0   0.0   0.0     0.0 
  1     14     2         6         7      VERTICAL   none     0.0   0.0   0.0     0.0 
  1     15     2         7         3      VERTICAL   none     0.0   0.0   0.0     0.0 
  1     16     2         7         4      VERTICAL   none     0.0   0.0   0.0     0.0 
  1     17     2         7         5      VERTICAL   none     0.0   0.0   0.0     0.0 
  1     18     2         7         6      VERTICAL   none     0.0   0.0   0.0     0.0 
  1     19     2         7         7      VERTICAL   none     0.0   0.0   0.0     0.0 
  1     20     2         8         3      VERTICAL   none     0.0   0.0   0.0     0.0 
  1     21     2         8         4      VERTICAL   none     0.0   0.0   0.0     0.0 
  1     22     2         8         5      VERTICAL   none     0.0   0.0   0.0     0.0 
  1     23     2         8         6      VERTICAL   none     0.0   0.0   0.0     0.0 
  1     24     2         8         7      VERTICAL   none     0.0   0.0   0.0     0.0 
  1     25     2         9         3      VERTICAL   none     0.0   0.0   0.0     0.0 
  1     26     2         9         4      VERTICAL   none     0.0   0.0   0.0     0.0 
  1     27     2         9         5      VERTICAL   none     0.0   0.0   0.0     0.0 
  1     28     2         9         6      VERTICAL   none     0.0   0.0   0.0     0.0 
  1     29     2         9         7      VERTICAL   none     0.0   0.0   0.0     0.0 
  1     30     2        10         3      VERTICAL   none     0.0   0.0   0.0     0.0 
  1     31     2        10         4      VERTICAL   none     0.0   0.0   0.0     0.0 
  1     32     2        10         5      VERTICAL   none     0.0   0.0   0.0     0.0 
  1     33     2        10         6      VERTICAL   none     0.0   0.0   0.0     0.0 
  1     34     2        10         7      VERTICAL   none     0.0   0.0   0.0     0.0 
  1     35     2        10         8      VERTICAL   none     0.0   0.0   0.0     0.0 
  1     36     2        11         4      VERTICAL   none     0.0   0.0   0.0     0.0 
  1     37     2        11         5      VERTICAL   none     0.0   0.0   0.0     0.0 
  1     38     2        11         6      VERTICAL   none     0.0   0.0   0.0     0.0 
  1     39     2        11         7      VERTICAL   none     0.0   0.0   0.0     0.0 
  1     40     2        11         8      VERTICAL   none     0.0   0.0   0.0     0.0 
  1     41     2        12         4      VERTICAL   none     0.0   0.0   0.0     0.0 
  1     42     2        12         5      VERTICAL   none     0.0   0.0   0.0     0.0 
  1     43     2        12         6      VERTICAL   none     0.0   0.0   0.0     0.0 
  1     44     2        12         7      VERTICAL   none     0.0   0.0   0.0     0.0 
  1     45     2        12         8      VERTICAL   none     0.0   0.0   0.0     0.0 
  1     46     2        12         9      VERTICAL   none     0.0   0.0   0.0     0.0 
  1     47     2        13         5      VERTICAL   none     0.0   0.0   0.0     0.0 
  1     48     2        13         6      VERTICAL   none     0.0   0.0   0.0     0.0 
  1     49     2        13         7      VERTICAL   none     0.0   0.0   0.0     0.0 
  1     50     2        13         8      VERTICAL   none     0.0   0.0   0.0     0.0 
  1     51     2        13         9      VERTICAL   none     0.0   0.0   0.0     0.0 
  1     52     2        14         5      VERTICAL   none     0.0   0.0   0.0     0.0 
  1     53     2        14         6      VERTICAL   none     0.0   0.0   0.0     0.0 
  1     54     2        14         7      VERTICAL   none     0.0   0.0   0.0     0.0 
  1     55     2        14         8      VERTICAL   none     0.0   0.0   0.0     0.0 
  1     56     2        14         9      VERTICAL   none     0.0   0.0   0.0     0.0 
  1     57     2        15         5      VERTICAL   none     0.0   0.0   0.0     0.0 
  1     58     2        15         6      VERTICAL   none     0.0   0.0   0.0     0.0 
  1     59     2        15         7      VERTICAL   none     0.0   0.0   0.0     0.0 
  1     60     2        15         8      VERTICAL   none     0.0   0.0   0.0     0.0 
  1     61     2        15         9      VERTICAL   none     0.0   0.0   0.0     0.0 
  1     62     2        16         6      VERTICAL   none     0.0   0.0   0.0     0.0 
  1     63     2        16         7      VERTICAL   none     0.0   0.0   0.0     0.0 
  1     64     2        16         8      VERTICAL   none     0.0   0.0   0.0     0.0 
  1     65     2        16         9      VERTICAL   none     0.0   0.0   0.0     0.0
  1     66     1         3         4      HORIZONTAL none    -5.0  -5.0 250.0   500.0
  1     67     1         3         5      HORIZONTAL none    -5.0  -5.0 250.0   500.0
  1     68     1         3         6      HORIZONTAL none    -5.0  -5.0 250.0   500.0
  1     69     1         3         7      HORIZONTAL none    -5.0  -5.0 250.0   500.0
  1     70     1         4         8      HORIZONTAL none    -5.0  -5.0 250.0   500.0
  1     71     1         5         8      HORIZONTAL none    -5.0  -5.0 250.0   500.0
  1     72     1         6         8      HORIZONTAL none    -5.0  -5.0 250.0   500.0
  1     73     1         7         8      HORIZONTAL none    -5.0  -5.0 250.0   500.0
  1     74     1         8         8      HORIZONTAL none    -5.0  -5.0 250.0   500.0
  1     75     1         9         8      HORIZONTAL none    -5.0  -5.0 250.0   500.0
  1     76     1         9         8      HORIZONTAL none    -5.0  -5.0 250.0   500.0
  1     77     1        10         9      HORIZONTAL none    -5.0  -5.0 250.0   500.0
  1     78     1        11         9      HORIZONTAL none    -5.0  -5.0 250.0   500.0
  1     79     1        11         9      HORIZONTAL none    -5.0  -5.0 250.0   500.0
  1     80     1        12        10      HORIZONTAL none    -5.0  -5.0 250.0   500.0
  1     81     1        13        10      HORIZONTAL none    -5.0  -5.0 250.0   500.0
  1     82     1        14        10      HORIZONTAL none    -5.0  -5.0 250.0   500.0
  1     83     1        15        10      HORIZONTAL none    -5.0  -5.0 250.0   500.0
  1     84     1        16        10      HORIZONTAL none    -5.0  -5.0 250.0   500.0
  1     85     1        17         9      HORIZONTAL none    -5.0  -5.0 250.0   500.0
  1     86     1        17         8      HORIZONTAL none    -5.0  -5.0 250.0   500.0
  1     87     1        17         7      HORIZONTAL none    -5.0  -5.0 250.0   500.0
  1     88     1        17         6      HORIZONTAL none    -5.0  -5.0 250.0   500.0
  1     89     1        16         5      HORIZONTAL none    -5.0  -5.0 250.0   500.0
  1     90     1        16         5      HORIZONTAL none    -5.0  -5.0 250.0   500.0
  1     91     1        15         4      HORIZONTAL none    -5.0  -5.0 250.0   500.0
  1     92     1        14         4      HORIZONTAL none    -5.0  -5.0 250.0   500.0
  1     93     1        13         4      HORIZONTAL none    -5.0  -5.0 250.0   500.0
  1     94     1        13         4      HORIZONTAL none    -5.0  -5.0 250.0   500.0
  1     95     1        12         3      HORIZONTAL none    -5.0  -5.0 250.0   500.0
  1     96     1        11         3      HORIZONTAL none    -5.0  -5.0 250.0   500.0
  1     97     1        11         3      HORIZONTAL none    -5.0  -5.0 250.0   500.0
  1     98     1        10         2      HORIZONTAL none    -5.0  -5.0 250.0   500.0
  1     99     1         9         2      HORIZONTAL none    -5.0  -5.0 250.0   500.0
  1    100     1         8         2      HORIZONTAL none    -5.0  -5.0 250.0   500.0
  1    101     1         7         2      HORIZONTAL none    -5.0  -5.0 250.0   500.0
  1    102     1         6         2      HORIZONTAL none    -5.0  -5.0 250.0   500.0
  1    103     1         5         2      HORIZONTAL none    -5.0  -5.0 250.0   500.0
  1    104     1         4         3      HORIZONTAL none    -5.0  -5.0 250.0   500.0
  1    105     1         4         3      HORIZONTAL none    -5.0  -5.0 250.0   500.0
END CONNECTIONDATA

BEGIN PERIOD 1
  1 status active
# lakeno  lakesetting  
  1       RAINFALL    0.00821918
  1       EVAPORATION 0.0062296
END PERIOD
