# Basic package file for MODFLOW.
 FREE
open/close  timeseriestest.ibound1.txt 1 (free) 1  #ibound Layer 1                
CONSTANT          1                                #ibound Layer 2                
          1.e30
CONSTANT    3.05
CONSTANT    9.14
