# SMS8 input file, prepared by MF5to6 on 7/29/2016 at 10:56:36.

BEGIN Options
  PRINT_OPTION  SUMMARY
  COMPLEXITY  MODERATE
END Options

BEGIN Nonlinear
  OUTER_HCLOSE   0.1000000E-04
  OUTER_MAXIMUM  100
  UNDER_RELAXATION  NONE
  UNDER_RELAXATION_THETA    0.000000    
  UNDER_RELAXATION_KAPPA    0.000000    
  UNDER_RELAXATION_GAMMA    0.000000    
  UNDER_RELAXATION_MOMENTUM    0.000000    
END Nonlinear

BEGIN LINEAR
  INNER_MAXIMUM  100
  INNER_HCLOSE   0.1000000E-05
  INNER_RCLOSE   0.1000000    
  LINEAR_ACCELERATION  BICGSTAB
  #PRECONDITIONER_LEVELS  7
  #PRECONDITIONER_DROP_TOLERANCE   0.1000000E-02
  #NUMBER_ORTHOGONALIZATIONS  2
  #REORDERING_METHOD  NONE
  relaxation_factor 0.99
END LINEAR
