# GHB8 input file, prepared by MF5to6 on 7/29/2016 at 10:56:36.

BEGIN Options
  PRINT_INPUT
  PRINT_FLOWS
END Options

BEGIN Dimensions
  MAXBOUND  2
END Dimensions

BEGIN PERIOD 1
  1  13  1    988.00000       0.38000000E-01
  1  14  9    1045.0000       0.38000000E-01
END PERIOD
