begin options
  print_option summary
end options

begin nonlinear
	outer_dvclose 1.e-6
	outer_maximum 1500 
	under_relaxation dbd
	under_relaxation_theta 0.90
	under_relaxation_kappa 0. 
	under_relaxation_gamma 0.
	under_relaxation_momentum 0. 
	backtracking_number 20
	backtracking_tolerance 2.
	backtracking_reduction_factor 0.6
	backtracking_residual_limit 1.0
end nonlinear

begin linear
  inner_maximum 200
	inner_dvclose 1.0e-6
	inner_rclose .0 relative_rclose
	linear_acceleration bicgstab
	reordering_method none
	preconditioner_levels 5
	number_orthogonalizations 7
	preconditioner_drop_tolerance 1.0e-4
end linear
