# PCG for MODFLOW, generated by Flopy.
500 100 1 0
1e-06 500.0 0.97 0 0 3 1.0 
