# Name file for MODFLOW-2005, generated by Flopy.
#xul:0; yul:100; rotation:0; proj4_str:+init=EPSG:4326; units:meters; lenuni:2 ;start_datetime:1-1-1970
LIST           2 flowdivert.list
DIS           11 flowdivert.dis 
BAS6          13 flowdivert.bas 
LPF           15 flowdivert.lpf 
PCG           27 flowdivert.pcg 
OC            14 flowdivert.oc 
DATA(BINARY)  51 flowdivert.hds REPLACE
DATA(BINARY)  52 flowdivert.ddn REPLACE
DATA(BINARY)  53 flowdivert.cbc REPLACE
