BEGIN OPTIONS
  #NONE
  LENGTH_UNITS METERS
END OPTIONS

BEGIN DIMENSIONS
  NLAY 2
  NROW 51
  NCOL 51
END DIMENSIONS

BEGIN GRIDDATA
  delr LAYERED
    INTERNAL  FACTOR 1.0  IPRN
    11.0 12.0 13.0 14.0 15.0 16.0 17.0 18.0 19.0 20.0 21.0 22.0 23.0 24.0 25.0 26.0 27.0 28.0 28.0 30.0
    31.0 32.0 33.0 34.0 35.0 36.0 37.0 38.0 39.0 40.0 41.0 42.0 43.0 44.0 45.0 46.0 47.0 48.0 49.0 50.0
    51.0 52.0 53.0 54.0 55.0 56.0 57.0 58.0 59.0 60.0 61.0 
  delc LAYERED
    INTERNAL  FACTOR 1.0  IPRN                         
    11.1 12.1 13.1 14.1 15.1 16.1 17.1 18.1 19.1 20.1 21.1 22.1 23.1 24.1 25.1 26.1 27.1 28.1 28.1 30.1
    31.1 32.1 33.1 34.1 35.1 36.1 37.1 38.1 39.1 40.1 41.1 42.1 43.1 44.1 45.1 46.1 47.1 48.1 49.1 50.1
    51.1 52.1 53.1 54.1 55.1 56.1 57.1 58.1 59.1 60.1 61.1 
  top LAYERED
    CONSTANT   10.    MODEL TOP
  botm LAYERED
    CONSTANT  -10.0  MODEL BOTTOM LAYER 1
    CONSTANT  -20.0  MODEL BOTTOM LAYER 2
  idomain LAYERED
    OPEN/CLOSE timeseriestest.ibound1.txt FACTOR  1  IPRN 1  
    constant 1
END GRIDDATA




