BEGIN OPTIONS
END OPTIONS

BEGIN PACKAGES
  DISV6         flow.disv
  IC6           flow.ic
  CHD6          flow.chd
  NPF6          flow.npf
  RCH6          flow.rch
  OC6           flow.oc
END PACKAGES

