# Simulation name file for MODFLOW-2015 prepared by Mf5to15

BEGIN Options
END Options

BEGIN Timing
  TDIS6  test037.tdis
END Timing

BEGIN Models
  GWF6  test037.nam  test037
END Models

BEGIN Exchanges
END Exchanges

BEGIN SOLUTIONGROUP 1
  MXITER  1
  IMS6  test037.ims  test037
END SOLUTIONGROUP
