# IC8 input file, prepared by mf5to15 on 7/9/2015 at 12:54:15.

BEGIN Options
END Options

BEGIN GRIDDATA
  STRT LAYERED
    INTERNAL  FACTOR    1.00000000      IPRN  0    Initial head for layer 1
   85.2355650       85.0887860       84.7944653       84.3510571       83.7561914       83.0066087       82.0980667       81.0252121       79.7814079       78.3585019    
   76.7465166       74.9332269       72.9035797       70.6388774       68.1156018       65.3036641       62.1637005       58.6426833       54.6663464       50.1250000    
   85.2355651       85.0887861       84.7944653       84.3510571       83.7561913       83.0066085       82.0980665       81.0252119       79.7814077       78.3585017    
   76.7465164       74.9332267       72.9035795       70.6388772       68.1156015       65.3036639       62.1637004       58.6426833       54.6663463       50.1250000    
   85.2355651       85.0887861       84.7944653       84.3510571       83.7561913       83.0066085       82.0980664       81.0252118       79.7814075       78.3585016    
   76.7465163       74.9332266       72.9035793       70.6388770       68.1156014       65.3036638       62.1637002       58.6426832       54.6663463       50.1250000    
   85.2355651       85.0887861       84.7944653       84.3510571       83.7561912       83.0066084       82.0980664       81.0252117       79.7814075       78.3585015    
   76.7465162       74.9332265       72.9035793       70.6388769       68.1156013       65.3036636       62.1637001       58.6426830       54.6663462       50.1250000    
   85.2355651       85.0887861       84.7944653       84.3510570       83.7561912       83.0066084       82.0980663       81.0252117       79.7814074       78.3585015    
   76.7465162       74.9332265       72.9035792       70.6388769       68.1156012       65.3036636       62.1637000       58.6426829       54.6663462       50.1250000    
   85.2355651       85.0887861       84.7944653       84.3510570       83.7561912       83.0066084       82.0980663       81.0252117       79.7814074       78.3585014    
   76.7465161       74.9332264       72.9035792       70.6388769       68.1156012       65.3036635       62.1637000       58.6426829       54.6663461       50.1250000    
   85.2355651       85.0887860       84.7944653       84.3510570       83.7561912       83.0066084       82.0980663       81.0252116       79.7814073       78.3585014    
   76.7465161       74.9332264       72.9035792       70.6388769       68.1156012       65.3036635       62.1636999       58.6426828       54.6663461       50.1250000    
   85.2355650       85.0887860       84.7944653       84.3510570       83.7561912       83.0066084       82.0980663       81.0252116       79.7814073       78.3585014    
   76.7465161       74.9332264       72.9035792       70.6388769       68.1156012       65.3036635       62.1636999       58.6426828       54.6663461       50.1250000    
   85.2355650       85.0887860       84.7944653       84.3510570       83.7561912       83.0066084       82.0980663       81.0252116       79.7814073       78.3585014    
   76.7465161       74.9332264       72.9035791       70.6388769       68.1156012       65.3036635       62.1637000       58.6426828       54.6663460       50.1250000    
   85.2355650       85.0887860       84.7944652       84.3510570       83.7561912       83.0066084       82.0980663       81.0252116       79.7814073       78.3585014    
   76.7465161       74.9332264       72.9035791       70.6388768       68.1156012       65.3036635       62.1636999       58.6426828       54.6663460       50.1250000    
   85.2355650       85.0887859       84.7944652       84.3510570       83.7561912       83.0066084       82.0980663       81.0252117       79.7814073       78.3585014    
   76.7465161       74.9332264       72.9035791       70.6388768       68.1156012       65.3036635       62.1636999       58.6426828       54.6663460       50.1250000    
   85.2355649       85.0887859       84.7944652       84.3510570       83.7561912       83.0066084       82.0980663       81.0252117       79.7814074       78.3585014    
   76.7465161       74.9332264       72.9035791       70.6388768       68.1156012       65.3036635       62.1636999       58.6426828       54.6663460       50.1250000    
   85.2355649       85.0887859       84.7944652       84.3510569       83.7561911       83.0066084       82.0980663       81.0252117       79.7814074       78.3585014    
   76.7465161       74.9332264       72.9035792       70.6388768       68.1156012       65.3036635       62.1636999       58.6426828       54.6663460       50.1250000    
   85.2355650       85.0887859       84.7944652       84.3510569       83.7561911       83.0066084       82.0980663       81.0252117       79.7814074       78.3585014    
   76.7465161       74.9332264       72.9035792       70.6388769       68.1156012       65.3036635       62.1636999       58.6426828       54.6663460       50.1250000    
   85.2355650       85.0887859       84.7944652       84.3510569       83.7561911       83.0066084       82.0980663       81.0252117       79.7814074       78.3585015    
   76.7465161       74.9332265       72.9035792       70.6388769       68.1156013       65.3036636       62.1637000       58.6426828       54.6663460       50.1250000    
   85.2355650       85.0887860       84.7944652       84.3510569       83.7561911       83.0066084       82.0980663       81.0252117       79.7814074       78.3585015    
   76.7465162       74.9332265       72.9035792       70.6388769       68.1156013       65.3036636       62.1637000       58.6426828       54.6663460       50.1250000    
   85.2355650       85.0887860       84.7944652       84.3510570       83.7561912       83.0066084       82.0980664       81.0252117       79.7814074       78.3585015    
   76.7465162       74.9332265       72.9035793       70.6388770       68.1156013       65.3036636       62.1637000       58.6426829       54.6663461       50.1250000    
   85.2355650       85.0887860       84.7944653       84.3510570       83.7561912       83.0066084       82.0980664       81.0252118       79.7814075       78.3585015    
   76.7465162       74.9332265       72.9035793       70.6388770       68.1156014       65.3036637       62.1637001       58.6426829       54.6663461       50.1250000    
   85.2355649       85.0887860       84.7944652       84.3510570       83.7561912       83.0066084       82.0980664       81.0252118       79.7814075       78.3585016    
   76.7465163       74.9332266       72.9035794       70.6388771       68.1156015       65.3036638       62.1637002       58.6426830       54.6663461       50.1250000    
   85.2355648       85.0887859       84.7944652       84.3510569       83.7561911       83.0066084       82.0980663       81.0252117       79.7814075       78.3585016    
   76.7465164       74.9332267       72.9035795       70.6388773       68.1156017       65.3036640       62.1637004       58.6426832       54.6663463       50.1250000    
   85.2355648       85.0887858       84.7944651       84.3510568       83.7561910       83.0066082       82.0980662       81.0252117       79.7814075       78.3585016    
   76.7465165       74.9332269       72.9035797       70.6388775       68.1156019       65.3036642       62.1637006       58.6426834       54.6663465       50.1250000    
END GRIDDATA
