# OC8 input file, prepared by mf5to15 on 7/9/2015 at 12:54:15.

BEGIN Options
  HEAD FILEOUT  test037_PS3A.HDS
  HEAD PRINT_FORMAT  COLUMNS 15  WIDTH 7  DIGITS 3  FIXED
END Options

BEGIN PERIOD 1
  PRINT BUDGET ALL
  SAVE HEAD ALL
  PRINT HEAD ALL
END PERIOD

BEGIN PERIOD 2
  PRINT HEAD LAST
  PRINT BUDGET ALL
  SAVE HEAD ALL
END PERIOD

BEGIN PERIOD 3
  PRINT BUDGET ALL
  SAVE HEAD ALL
  PRINT HEAD ALL
END PERIOD
