# sms8 input file, prepared by mf5to15 on 7/9/2015 at 12:54:15.

begin options
  print_option summary
  complexity  simple
end options

begin nonlinear
  outer_dvclose   0.10000000e-05
  outer_maximum  20
  under_relaxation  none
end nonlinear

begin linear
  inner_maximum  20
  inner_dvclose   0.10000000e-06
  inner_rclose    1000.0000    
  linear_acceleration  cg
end linear

begin xmd
  inner_maximum  20
  inner_dvclose   0.10000000e-06
  linear_acceleration  cg
  preconditioner_levels  7
  preconditioner_drop_tolerance   0.10000000e-02
  number_orthogonalizations  2
end xmd
