# RIV8 input file, prepared by mf5to15 on 7/9/2015 at 12:54:15.

BEGIN Options
END Options

BEGIN Dimensions
  MAXBOUND  21
END Dimensions

BEGIN PERIOD 1
  1  1  20    50.000000        100000.00        48.000000
  1  2  20    50.000000        100000.00        48.000000
  1  3  20    50.000000        100000.00        48.000000
  1  4  20    50.000000        100000.00        48.000000
  1  5  20    50.000000        100000.00        48.000000
  1  6  20    50.000000        100000.00        48.000000
  1  7  20    50.000000        100000.00        48.000000
  1  8  20    50.000000        100000.00        48.000000
  1  9  20    50.000000        100000.00        48.000000
  1  10  20    50.000000        100000.00        48.000000
  1  11  20    50.000000        100000.00        48.000000
  1  12  20    50.000000        100000.00        48.000000
  1  13  20    50.000000        100000.00        48.000000
  1  14  20    50.000000        100000.00        48.000000
  1  15  20    50.000000        100000.00        48.000000
  1  16  20    50.000000        100000.00        48.000000
  1  17  20    50.000000        100000.00        48.000000
  1  18  20    50.000000        100000.00        48.000000
  1  19  20    50.000000        100000.00        48.000000
  1  20  20    50.000000        100000.00        48.000000
  1  21  20    50.000000        100000.00        48.000000
END PERIOD
