# CHD8 input file, prepared by mf5to15 on 7/9/2015 at 12:54:15.

BEGIN Options
  PRINT_FLOWS
END Options

BEGIN Dimensions
  MAXBOUND  40
END Dimensions

BEGIN Period 1
  1  1  1    85.235565        85.235565    
  1  1  2    85.088786        85.088786    
  1  1  3    84.794465        84.794465    
  1  1  4    84.351057        84.351057    
  1  1  5    83.756191        83.756191    
  1  1  6    83.006609        83.006609    
  1  1  7    82.098067        82.098067    
  1  1  8    81.025212        81.025212    
  1  1  9    79.781408        79.781408    
  1  1  10    78.358502        78.358502    
  1  1  11    76.746517        76.746517    
  1  1  12    74.933227        74.933227    
  1  1  13    72.903580        72.903580    
  1  1  14    70.638877        70.638877    
  1  1  15    68.115602        68.115602    
  1  1  16    65.303664        65.303664    
  1  1  17    62.163701        62.163701    
  1  1  18    58.642683        58.642683    
  1  1  19    54.666346        54.666346    
  1  1  20    50.125000        50.125000    
  1  21  1    85.235565        85.235565    
  1  21  2    85.088786        85.088786    
  1  21  3    84.794465        84.794465    
  1  21  4    84.351057        84.351057    
  1  21  5    83.756191        83.756191    
  1  21  6    83.006608        83.006608    
  1  21  7    82.098066        82.098066    
  1  21  8    81.025212        81.025212    
  1  21  9    79.781407        79.781407    
  1  21  10    78.358502        78.358502    
  1  21  11    76.746516        76.746516    
  1  21  12    74.933227        74.933227    
  1  21  13    72.903580        72.903580    
  1  21  14    70.638877        70.638877    
  1  21  15    68.115602        68.115602    
  1  21  16    65.303664        65.303664    
  1  21  17    62.163701        62.163701    
  1  21  18    58.642683        58.642683    
  1  21  19    54.666346        54.666346    
  1  21  20    50.125000        50.125000    
END Period
