# Basic package file for MODFLOW, generated by Flopy.
begin options
end options

BEGIN GRIDDATA
  strt
    constant -1.0001
END GRIDDATA
