BEGIN OPTIONS
  TIME_UNITS MINUTES
END OPTIONS

BEGIN DIMENSIONS
  NPER 2
END DIMENSIONS

BEGIN PERIODDATA
 #perlen nstp  tsmult
    0.25   25     1.0
    0.25   25     1.0
END PERIODDATA
