# RIV8 input file, prepared by MF5to6 on 8/9/2016 at 17:58:04.

BEGIN Options
  PRINT_INPUT
END Options

BEGIN Dimensions
  MAXBOUND  10
END Dimensions

BEGIN PERIOD 1
  3  1  15    0.0000000        10000.000       -5.0000000
  3  2  15    0.0000000        10000.000       -5.0000000
  3  3  15    0.0000000        10000.000       -5.0000000
  3  4  15    0.0000000        10000.000       -5.0000000
  3  5  15    0.0000000        10000.000       -5.0000000
  3  6  15    0.0000000        10000.000       -5.0000000
  3  7  15    0.0000000        10000.000       -5.0000000
  3  8  15    0.0000000        10000.000       -5.0000000
  3  9  15    0.0000000        10000.000       -5.0000000
  3  10  15    0.0000000        10000.000       -5.0000000
END PERIOD
