# sms8 input file, prepared by mf5to6 on 8/9/2016 at 17:58:04.

begin options
  print_option  summary
  complexity  simple
end options

begin nonlinear
  outer_dvclose   1e-6
  outer_maximum  500
  under_relaxation  dbd
  under_relaxation_theta    0.900000    
  under_relaxation_kappa    0.000100    
  under_relaxation_gamma    0.000000    
  under_relaxation_momentum    0.100000    
	backtracking_number 20
	backtracking_tolerance 2.
	backtracking_reduction_factor 0.6
	backtracking_residual_limit 1.0
end nonlinear

begin linear
  inner_maximum  200
  inner_dvclose   1e-6
  inner_rclose    1000.000    
  linear_acceleration  bicgstab
  reordering_method  none
	preconditioner_levels 3
	number_orthogonalizations 7
	preconditioner_drop_tolerance 1.0e-4
end linear
