# SMS8 input file, prepared by MF5to6 on 8/9/2016 at 17:58:04.

BEGIN Options
  PRINT_OPTION  SUMMARY
  COMPLEXITY  SIMPLE
END Options

BEGIN Nonlinear
  OUTER_HCLOSE   1e-6
  OUTER_MAXIMUM  500
  UNDER_RELAXATION  DBD
  UNDER_RELAXATION_THETA    0.900000    
  UNDER_RELAXATION_KAPPA    0.000100    
  UNDER_RELAXATION_GAMMA    0.000000    
  UNDER_RELAXATION_MOMENTUM    0.100000    
	BACKTRACKING_NUMBER 20
	BACKTRACKING_TOLERANCE 2.
	BACKTRACKING_REDUCTION_FACTOR 0.6
	BACKTRACKING_RESIDUAL_LIMIT 1.0
END Nonlinear

BEGIN LINEAR
  INNER_MAXIMUM  200
  INNER_HCLOSE   1e-6
  INNER_RCLOSE    1000.000    
  LINEAR_ACCELERATION  BICGSTAB
  REORDERING_METHOD  NONE
	PRECONDITIONER_LEVELS 3
	NUMBER_ORTHOGONALIZATIONS 7
	PRECONDITIONER_DROP_TOLERANCE 1.0e-4
END LINEAR
