BEGIN OPTIONS
  PRINT_INPUT
  PRINT_FLOWS
END OPTIONS

BEGIN DIMENSIONS
  MAXMVR 1
  MAXPACKAGES 2
END DIMENSIONS

BEGIN PACKAGES
  WEL-1
  MAW-1
END PACKAGES

BEGIN PERIOD 1
# pname1 id1 pname2 id2 mvrtype value
  WEL-1   3  MAW-1   4  FACTOR   1.0
END PERIOD
