# TDIS8 input file, prepared by MF5to6 on 1/11/2017 at 17:13:57.

BEGIN Options
  TIME_UNITS DAYS
END Options

BEGIN Dimensions
  NPER 1
END Dimensions

BEGIN PERIODDATA
    100.00000               1    1.0000000      Items: PERLEN NSTP TSMULT
END PERIODDATA
