# NPF8 input file, prepared by MF5to6 on 1/11/2017 at 17:13:57.

BEGIN Options
  PERCHED
  VARIABLECV  DEWATERED
END Options

BEGIN GRIDDATA
  Icelltype LAYERED
    CONSTANT  0
  k  LAYERED
    CONSTANT    1.00000000    
  K33  LAYERED
    CONSTANT    1.00000000    
END GRIDDATA
