# Well file for MODFLOW, generated by Flopy.
         1         0
         1         0 # stress period 0
         1        26        26 -1.000000
