begin options
  digits 16
  print_input
end options

begin Continuous FILEOUT mf6.sfr.csv
  GAGE1STAGE  STAGE  1
  GAGE2STAGE  STAGE  3
  GAGE3STAGE  STAGE  6
  GAGE4STAGE  STAGE  9
  GAGE5STAGE  STAGE 12
  GAGE6STAGE  STAGE 15
  GAGE7STAGE  STAGE 18
  GAGE8STAGE  STAGE 21
end Continuous
