# IC6 input file, prepared by MF5to6 on 6/8/2017 at 12:33:24.

BEGIN Options
END Options

BEGIN GRIDDATA
  STRT LAYERED
    CONSTANT   -3.500000    
    CONSTANT   -3.500000    
    CONSTANT   -3.500000    
END GRIDDATA
