begin options
  digits 10
  print_input
end options

begin continuous FILEOUT Injection.csv
  M1HEAD0   HEAD  1
  M1RATE0   RATE  1
  L1FLOW    MAW 1 1
  IWFROM-MVR FROM-MVR 1
end continuous

