begin options
  digits 10
  print_input
end options

#
# Blocks defining continuous observations
#

begin continuous FILEOUT NT_EI_GW.csv
  PWELLL1  head  1 51 51
  PWELLL2  head  2 51 51
  IWELLL1  head  1 25 25
  IWELLL2  head  2 25 25
end continuous
