BEGIN OPTIONS
  HEAD FILEOUT NT_EI.hds
  BUDGET FILEOUT NT_EI.cbc
END OPTIONS

BEGIN PERIOD 1
  PRINT BUDGET STEPS 1 10 20 30 40 50
  SAVE BUDGET STEPS 1 10 20 30 40 50
  SAVE HEAD STEPS 1 10 20 30 40 50
END PERIOD
