BEGIN OPTIONS
  PRINT_INPUT
  PRINT_FLOWS
END OPTIONS

BEGIN DIMENSIONS
  MAXMVR 10
  MAXPACKAGES 2
END DIMENSIONS

BEGIN PACKAGES
  MAW-1
  MAW-2
END PACKAGES

BEGIN PERIOD 1
  MAW-1  1 MAW-2  1 FACTOR 1.0
END PERIOD 1


