BEGIN OPTIONS
  TIME_UNITS DAYS
END OPTIONS

BEGIN DIMENSIONS
  NPER 2
END DIMENSIONS

BEGIN PERIODDATA
 #perlen   nstp  tsmult
  2.314815   50     1.2
  2.314815   50     1.2
END PERIODDATA
