# square lake                                         
begin dimensions                                      
  nrow 9
  ncol 5                                         
end dimensions                                        
                                                      
begin table                                           
#     stage     volume      sarea     warea     radius                           
   2.000000   0.000000   0.000000   0.000000  0.000000
   3.000000   1.636246   4.908739   6.286253  1.250000
   4.000000  13.089969  19.634954  25.145010  2.500000
   5.000000  44.178647  44.178647  56.576273  3.750000
   6.000000 104.719755  78.539816 100.580040  5.000000
   7.000000 204.530772 122.718463 157.156313  6.250000
   8.000000 353.429174 176.714587 226.305091  7.500000
   9.000000 561.232438 240.528188 308.026373  8.750000
  10.000000 837.758041 314.159265 402.320161 10.000000
end table                                              
