begin options
  PRINT_INPUT
  PRINT_FLOWS
  SAVE_FLOWS
end options

begin dimensions
  MAXBOUND 10
end dimensions

begin period 1
#layer 1
 1 1 1 10. 
 1 2 1 10. 
 1 3 1 10. 
 1 4 1 10. 
 1 5 1 10. 
 1 6 1 10. 
 1 7 1 10. 
 1 8 1 10. 
 1 9 1 10. 
 1 10 1 10.
end period
