# Copied from test6_gwf3\flow.npf
#
begin options
  SAVE_FLOWS
  PRINT_FLOWS
end options
#
BEGIN GRIDDATA
#
#apply these arrays for the entire simulation
#
#icelltype(nodes) is 0:confined, 1:convertible, 4:upstream?
  icelltype
    constant 0
#
#K(nodes) horizontal hydraulic conductivity
  K
    constant 1.
#
#K33(nodes) vertical hydraulic conductivity
  K33
    constant 1.
#
#this will crash it  funkyarray
#	constant
END GRIDDATA
