BEGIN OPTIONS

END OPTIONS

BEGIN DIMENSIONS
  NLAY 1
  NROW 10
  NCOL 10
END DIMENSIONS

BEGIN GRIDDATA
  delr
    CONSTANT   1.000000E+00  DELR
  delc
    CONSTANT   1.000000E+00  DELC
  top
    CONSTANT   1.000000E+00  TOP
  botm
    CONSTANT   0.000000E+00  BOTM
END GRIDDATA


# Discretization file for MODFLOW, generated by Flopy.
 1 10 10 2
CONSTANT    1.000000E+00                           #delr                          
CONSTANT    1.000000E+00                           #delc                          
CONSTANT    1.000000E+00                           #model_top                     
CONSTANT    0.000000E+00                           #botm Layer 1                  
