BEGIN OPTIONS
  NEWTON
END OPTIONS

BEGIN PACKAGES
  IC6           keatinglike.ic
  NPF6          keatinglike.npf
  OC6           keatinglike.oc
  DIS6          keatinglike.dis
  RCH6          keatinglike.rch
  CHD6          keatinglike.chd
END PACKAGES

