BEGIN OPTIONS
  PRINT_INPUT
  PRINT_FLOWS
  MOVER
  BOUNDNAMES
  OBS6 FILEIN  ghb.obs
END OPTIONS

BEGIN DIMENSIONS
  MAXBOUND 4
END DIMENSIONS

BEGIN PERIOD 1
# cellid bhead cond 
  1 5 13 -10.0 100.0 GHB1
  1 5 14 -10.0 100.0 GHB1
  1 5 15 -10.0 100.0 GHB2
  1 5 16 -10.0 100.0 GHB2
END PERIOD