# IC8 input file, prepared by MF5to6 on 1/11/2017 at 17:13:57.

BEGIN Options
END Options

BEGIN GRIDDATA
  STRT LAYERED
    CONSTANT    0.000000    
END GRIDDATA
