BEGIN OPTIONS
  PRINT_INPUT
  PRINT_FLOWS
END OPTIONS

BEGIN DIMENSIONS
  MAXMVR 1
  MAXPACKAGES 2
END DIMENSIONS

BEGIN PACKAGES
  GHB-1
  MAW-1
END PACKAGES

BEGIN PERIOD 1
# pname1 id1 pname2 id2 mvrtype value
  GHB-1   3  MAW-1   4  UPTO    200.0
END PERIOD
