BEGIN OPTIONS
END OPTIONS

BEGIN DIMENSIONS
  NODES 228
  NJA 1372
END DIMENSIONS

BEGIN GRIDDATA
  TOP
    INTERNAL  FACTOR  1 IPRN
0.0 0.0 0.0 0.0 0.0 0.0 0.0 0.0 0.0 0.0 0.0 0.0 0.0 0.0 0.0 0.0 0.0 0.0 0.0 0.0 0.0 0.0 0.0 0.0 0.0 0.0 0.0 0.0 0.0 0.0 0.0 0.0 0.0 0.0 0.0 0.0 0.0 0.0 0.0 0.0 0.0 0.0 0.0 0.0 0.0 0.0 0.0 0.0 0.0 0.0 0.0 0.0 0.0 0.0 0.0 0.0 0.0 0.0 0.0 0.0 0.0 0.0 0.0 0.0 0.0 0.0 0.0 0.0 0.0 0.0 0.0 0.0 0.0 0.0 0.0 0.0 -10.0 -10.0 -10.0 -10.0 -10.0 -10.0 -10.0 -10.0 -10.0 -10.0 -10.0 -10.0 -10.0 -10.0 -10.0 -10.0 -10.0 -10.0 -10.0 -10.0 -10.0 -10.0 -10.0 -10.0 -10.0 -10.0 -10.0 -10.0 -10.0 -10.0 -10.0 -10.0 -10.0 -10.0 -10.0 -10.0 -10.0 -10.0 -10.0 -10.0 -10.0 -10.0 -10.0 -10.0 -10.0 -10.0 -10.0 -10.0 -10.0 -10.0 -10.0 -10.0 -10.0 -10.0 -10.0 -10.0 -10.0 -10.0 -10.0 -10.0 -10.0 -10.0 -10.0 -10.0 -10.0 -10.0 -10.0 -10.0 -10.0 -10.0 -10.0 -10.0 -10.0 -10.0 -10.0 -10.0 -20.0 -20.0 -20.0 -20.0 -20.0 -20.0 -20.0 -20.0 -20.0 -20.0 -20.0 -20.0 -20.0 -20.0 -20.0 -20.0 -20.0 -20.0 -20.0 -20.0 -20.0 -20.0 -20.0 -20.0 -20.0 -20.0 -20.0 -20.0 -20.0 -20.0 -20.0 -20.0 -20.0 -20.0 -20.0 -20.0 -20.0 -20.0 -20.0 -20.0 -20.0 -20.0 -20.0 -20.0 -20.0 -20.0 -20.0 -20.0 -20.0 -20.0 -20.0 -20.0 -20.0 -20.0 -20.0 -20.0 -20.0 -20.0 -20.0 -20.0 -20.0 -20.0 -20.0 -20.0 -20.0 -20.0 -20.0 -20.0 -20.0 -20.0 -20.0 -20.0 -20.0 -20.0 -20.0 -20.0 
  BOT
    INTERNAL  FACTOR  1 IPRN
-10.0 -10.0 -10.0 -10.0 -10.0 -10.0 -10.0 -10.0 -10.0 -10.0 -10.0 -10.0 -10.0 -10.0 -10.0 -10.0 -10.0 -10.0 -10.0 -10.0 -10.0 -10.0 -10.0 -10.0 -10.0 -10.0 -10.0 -10.0 -10.0 -10.0 -10.0 -10.0 -10.0 -10.0 -10.0 -10.0 -10.0 -10.0 -10.0 -10.0 -10.0 -10.0 -10.0 -10.0 -10.0 -10.0 -10.0 -10.0 -10.0 -10.0 -10.0 -10.0 -10.0 -10.0 -10.0 -10.0 -10.0 -10.0 -10.0 -10.0 -10.0 -10.0 -10.0 -10.0 -10.0 -10.0 -10.0 -10.0 -10.0 -10.0 -10.0 -10.0 -10.0 -10.0 -10.0 -10.0 -20.0 -20.0 -20.0 -20.0 -20.0 -20.0 -20.0 -20.0 -20.0 -20.0 -20.0 -20.0 -20.0 -20.0 -20.0 -20.0 -20.0 -20.0 -20.0 -20.0 -20.0 -20.0 -20.0 -20.0 -20.0 -20.0 -20.0 -20.0 -20.0 -20.0 -20.0 -20.0 -20.0 -20.0 -20.0 -20.0 -20.0 -20.0 -20.0 -20.0 -20.0 -20.0 -20.0 -20.0 -20.0 -20.0 -20.0 -20.0 -20.0 -20.0 -20.0 -20.0 -20.0 -20.0 -20.0 -20.0 -20.0 -20.0 -20.0 -20.0 -20.0 -20.0 -20.0 -20.0 -20.0 -20.0 -20.0 -20.0 -20.0 -20.0 -20.0 -20.0 -20.0 -20.0 -20.0 -20.0 -30.0 -30.0 -30.0 -30.0 -30.0 -30.0 -30.0 -30.0 -30.0 -30.0 -30.0 -30.0 -30.0 -30.0 -30.0 -30.0 -30.0 -30.0 -30.0 -30.0 -30.0 -30.0 -30.0 -30.0 -30.0 -30.0 -30.0 -30.0 -30.0 -30.0 -30.0 -30.0 -30.0 -30.0 -30.0 -30.0 -30.0 -30.0 -30.0 -30.0 -30.0 -30.0 -30.0 -30.0 -30.0 -30.0 -30.0 -30.0 -30.0 -30.0 -30.0 -30.0 -30.0 -30.0 -30.0 -30.0 -30.0 -30.0 -30.0 -30.0 -30.0 -30.0 -30.0 -30.0 -30.0 -30.0 -30.0 -30.0 -30.0 -30.0 -30.0 -30.0 -30.0 -30.0 -30.0 -30.0 
  AREA
    INTERNAL  FACTOR  1 IPRN
10000.0 10000.0 10000.0 10000.0 10000.0 10000.0 10000.0 10000.0 10000.0 10000.0 10000.0 10000.0 10000.0 10000.0 10000.0 10000.0 10000.0 10000.0 10000.0 10000.0 10000.0 10000.0 10000.0 10000.0 10000.0 10000.0 10000.0 2500.0 2500.0 2500.0 2500.0 2500.0 2500.0 2500.0 2500.0 10000.0 10000.0 10000.0 10000.0 10000.0 10000.0 2500.0 2500.0 2500.0 2500.0 2500.0 2500.0 2500.0 2500.0 10000.0 10000.0 10000.0 10000.0 10000.0 10000.0 10000.0 10000.0 10000.0 10000.0 10000.0 10000.0 10000.0 10000.0 10000.0 10000.0 10000.0 10000.0 10000.0 10000.0 10000.0 10000.0 10000.0 10000.0 10000.0 10000.0 10000.0 10000.0 10000.0 10000.0 10000.0 10000.0 10000.0 10000.0 10000.0 10000.0 10000.0 10000.0 10000.0 10000.0 10000.0 10000.0 10000.0 10000.0 10000.0 10000.0 10000.0 10000.0 10000.0 10000.0 10000.0 10000.0 10000.0 10000.0 2500.0 2500.0 2500.0 2500.0 2500.0 2500.0 2500.0 2500.0 10000.0 10000.0 10000.0 10000.0 10000.0 10000.0 2500.0 2500.0 2500.0 2500.0 2500.0 2500.0 2500.0 2500.0 10000.0 10000.0 10000.0 10000.0 10000.0 10000.0 10000.0 10000.0 10000.0 10000.0 10000.0 10000.0 10000.0 10000.0 10000.0 10000.0 10000.0 10000.0 10000.0 10000.0 10000.0 10000.0 10000.0 10000.0 10000.0 10000.0 10000.0 10000.0 10000.0 10000.0 10000.0 10000.0 10000.0 10000.0 10000.0 10000.0 10000.0 10000.0 10000.0 10000.0 10000.0 10000.0 10000.0 10000.0 10000.0 10000.0 10000.0 10000.0 10000.0 10000.0 10000.0 10000.0 10000.0 10000.0 2500.0 2500.0 2500.0 2500.0 2500.0 2500.0 2500.0 2500.0 10000.0 10000.0 10000.0 10000.0 10000.0 10000.0 2500.0 2500.0 2500.0 2500.0 2500.0 2500.0 2500.0 2500.0 10000.0 10000.0 10000.0 10000.0 10000.0 10000.0 10000.0 10000.0 10000.0 10000.0 10000.0 10000.0 10000.0 10000.0 10000.0 10000.0 10000.0 10000.0 10000.0 10000.0 10000.0 10000.0 10000.0 10000.0 10000.0 10000.0 10000.0 
END GRIDDATA

BEGIN CONNECTIONDATA
  IAC
    INTERNAL  FACTOR  1 IPRN
4 5 5 5 5 5 5 4 5 6 6 6 6 6 6 5 5 6 6 7 7 6 6 5 5 6 7 6 6 6 6 6 6 6 6 7 6 5 5 6 7 6 6 6 6 6 6 6 6 7 6 5 5 6 6 7 7 6 6 5 5 6 6 6 6 6 6 5 4 5 5 5 5 5 5 4 5 6 6 6 6 6 6 5 6 7 7 7 7 7 7 6 6 7 7 8 8 7 7 6 6 7 8 7 7 7 7 7 7 7 7 8 7 6 6 7 8 7 7 7 7 7 7 7 7 8 7 6 6 7 7 8 8 7 7 6 6 7 7 7 7 7 7 6 5 6 6 6 6 6 6 5 4 5 5 5 5 5 5 4 5 6 6 6 6 6 6 5 5 6 6 7 7 6 6 5 5 6 7 6 6 6 6 6 6 6 6 7 6 5 5 6 7 6 6 6 6 6 6 6 6 7 6 5 5 6 6 7 7 6 6 5 5 6 6 6 6 6 6 5 4 5 5 5 5 5 5 4 
  JA
    INTERNAL  FACTOR  1 IPRN
1 2 9 77 2 1 3 10 78 3 2 4 11 79 4 3 5 12 80 5 4 6 13 81 6 5 7 14 82 7 6 8 15 83 8 7 16 84 9 1 10 17 85 10 2 9 11 18 86 11 3 10 12 19 87 12 4 11 13 20 88 13 5 12 14 21 89 14 6 13 15 22 90 15 7 14 16 23 91 16 8 15 24 92 17 9 18 25 93 18 10 17 19 26 94 19 11 18 20 27 95 20 12 19 21 28 29 96 21 13 20 22 32 33 97 22 14 21 23 36 98 23 15 22 24 37 99 24 16 23 38 100 25 17 26 39 101 26 18 25 27 40 102 27 19 26 28 30 41 103 28 20 27 29 30 104 29 20 28 31 32 105 30 27 28 31 42 106 31 29 30 34 43 107 32 21 29 33 34 108 33 21 32 35 36 109 34 31 32 35 46 110 35 33 34 36 47 111 36 22 33 35 37 50 112 37 23 36 38 51 113 38 24 37 52 114 39 25 40 53 115 40 26 39 41 54 116 41 27 40 42 44 55 117 42 30 41 43 44 118 43 31 42 45 46 119 44 41 42 45 56 120 45 43 44 48 56 121 46 34 43 47 48 122 47 35 46 49 50 123 48 45 46 49 57 124 49 47 48 50 57 125 50 36 47 49 51 58 126 51 37 50 52 59 127 52 38 51 60 128 53 39 54 61 129 54 40 53 55 62 130 55 41 54 56 63 131 56 44 45 55 57 64 132 57 48 49 56 58 65 133 58 50 57 59 66 134 59 51 58 60 67 135 60 52 59 68 136 61 53 62 69 137 62 54 61 63 70 138 63 55 62 64 71 139 64 56 63 65 72 140 65 57 64 66 73 141 66 58 65 67 74 142 67 59 66 68 75 143 68 60 67 76 144 69 61 70 145 70 62 69 71 146 71 63 70 72 147 72 64 71 73 148 73 65 72 74 149 74 66 73 75 150 75 67 74 76 151 76 68 75 152 77 1 78 85 153 78 2 77 79 86 154 79 3 78 80 87 155 80 4 79 81 88 156 81 5 80 82 89 157 82 6 81 83 90 158 83 7 82 84 91 159 84 8 83 92 160 85 9 77 86 93 161 86 10 78 85 87 94 162 87 11 79 86 88 95 163 88 12 80 87 89 96 164 89 13 81 88 90 97 165 90 14 82 89 91 98 166 91 15 83 90 92 99 167 92 16 84 91 100 168 93 17 85 94 101 169 94 18 86 93 95 102 170 95 19 87 94 96 103 171 96 20 88 95 97 104 105 172 97 21 89 96 98 108 109 173 98 22 90 97 99 112 174 99 23 91 98 100 113 175 100 24 92 99 114 176 101 25 93 102 115 177 102 26 94 101 103 116 178 103 27 95 102 104 106 117 179 104 28 96 103 105 106 180 105 29 96 104 107 108 181 106 30 103 104 107 118 182 107 31 105 106 110 119 183 108 32 97 105 109 110 184 109 33 97 108 111 112 185 110 34 107 108 111 122 186 111 35 109 110 112 123 187 112 36 98 109 111 113 126 188 113 37 99 112 114 127 189 114 38 100 113 128 190 115 39 101 116 129 191 116 40 102 115 117 130 192 117 41 103 116 118 120 131 193 118 42 106 117 119 120 194 119 43 107 118 121 122 195 120 44 117 118 121 132 196 121 45 119 120 124 132 197 122 46 110 119 123 124 198 123 47 111 122 125 126 199 124 48 121 122 125 133 200 125 49 123 124 126 133 201 126 50 112 123 125 127 134 202 127 51 113 126 128 135 203 128 52 114 127 136 204 129 53 115 130 137 205 130 54 116 129 131 138 206 131 55 117 130 132 139 207 132 56 120 121 131 133 140 208 133 57 124 125 132 134 141 209 134 58 126 133 135 142 210 135 59 127 134 136 143 211 136 60 128 135 144 212 137 61 129 138 145 213 138 62 130 137 139 146 214 139 63 131 138 140 147 215 140 64 132 139 141 148 216 141 65 133 140 142 149 217 142 66 134 141 143 150 218 143 67 135 142 144 151 219 144 68 136 143 152 220 145 69 137 146 221 146 70 138 145 147 222 147 71 139 146 148 223 148 72 140 147 149 224 149 73 141 148 150 225 150 74 142 149 151 226 151 75 143 150 152 227 152 76 144 151 228 153 77 154 161 154 78 153 155 162 155 79 154 156 163 156 80 155 157 164 157 81 156 158 165 158 82 157 159 166 159 83 158 160 167 160 84 159 168 161 85 153 162 169 162 86 154 161 163 170 163 87 155 162 164 171 164 88 156 163 165 172 165 89 157 164 166 173 166 90 158 165 167 174 167 91 159 166 168 175 168 92 160 167 176 169 93 161 170 177 170 94 162 169 171 178 171 95 163 170 172 179 172 96 164 171 173 180 181 173 97 165 172 174 184 185 174 98 166 173 175 188 175 99 167 174 176 189 176 100 168 175 190 177 101 169 178 191 178 102 170 177 179 192 179 103 171 178 180 182 193 180 104 172 179 181 182 181 105 172 180 183 184 182 106 179 180 183 194 183 107 181 182 186 195 184 108 173 181 185 186 185 109 173 184 187 188 186 110 183 184 187 198 187 111 185 186 188 199 188 112 174 185 187 189 202 189 113 175 188 190 203 190 114 176 189 204 191 115 177 192 205 192 116 178 191 193 206 193 117 179 192 194 196 207 194 118 182 193 195 196 195 119 183 194 197 198 196 120 193 194 197 208 197 121 195 196 200 208 198 122 186 195 199 200 199 123 187 198 201 202 200 124 197 198 201 209 201 125 199 200 202 209 202 126 188 199 201 203 210 203 127 189 202 204 211 204 128 190 203 212 205 129 191 206 213 206 130 192 205 207 214 207 131 193 206 208 215 208 132 196 197 207 209 216 209 133 200 201 208 210 217 210 134 202 209 211 218 211 135 203 210 212 219 212 136 204 211 220 213 137 205 214 221 214 138 206 213 215 222 215 139 207 214 216 223 216 140 208 215 217 224 217 141 209 216 218 225 218 142 210 217 219 226 219 143 211 218 220 227 220 144 212 219 228 221 145 213 222 222 146 214 221 223 223 147 215 222 224 224 148 216 223 225 225 149 217 224 226 226 150 218 225 227 227 151 219 226 228 228 152 220 227 
  IHC
    INTERNAL  FACTOR  1 IPRN
0 1 1 0 0 1 1 1 0 0 1 1 1 0 0 1 1 1 0 0 1 1 1 0 0 1 1 1 0 0 1 1 1 0 0 1 1 0 0 1 1 1 0 0 1 1 1 1 0 0 1 1 1 1 0 0 1 1 1 1 0 0 1 1 1 1 0 0 1 1 1 1 0 0 1 1 1 1 0 0 1 1 1 0 0 1 1 1 0 0 1 1 1 1 0 0 1 1 1 1 0 0 1 1 1 1 1 0 0 1 1 1 1 1 0 0 1 1 1 1 0 0 1 1 1 1 0 0 1 1 1 0 0 1 1 1 0 0 1 1 1 1 0 0 1 1 1 1 1 0 0 1 1 1 1 0 0 1 1 1 1 0 0 1 1 1 1 0 0 1 1 1 1 0 0 1 1 1 1 0 0 1 1 1 1 0 0 1 1 1 1 0 0 1 1 1 1 0 0 1 1 1 1 1 0 0 1 1 1 1 0 0 1 1 1 0 0 1 1 1 0 0 1 1 1 1 0 0 1 1 1 1 1 0 0 1 1 1 1 0 0 1 1 1 1 0 0 1 1 1 1 0 0 1 1 1 1 0 0 1 1 1 1 0 0 1 1 1 1 0 0 1 1 1 1 0 0 1 1 1 1 0 0 1 1 1 1 1 0 0 1 1 1 1 0 0 1 1 1 0 0 1 1 1 0 0 1 1 1 1 0 0 1 1 1 1 0 0 1 1 1 1 1 0 0 1 1 1 1 1 0 0 1 1 1 1 0 0 1 1 1 1 0 0 1 1 1 0 0 1 1 1 0 0 1 1 1 1 0 0 1 1 1 1 0 0 1 1 1 1 0 0 1 1 1 1 0 0 1 1 1 1 0 0 1 1 1 1 0 0 1 1 1 0 0 1 1 0 0 1 1 1 0 0 1 1 1 0 0 1 1 1 0 0 1 1 1 0 0 1 1 1 0 0 1 1 1 0 0 1 1 0 0 0 1 1 0 0 0 1 1 1 0 0 0 1 1 1 0 0 0 1 1 1 0 0 0 1 1 1 0 0 0 1 1 1 0 0 0 1 1 1 0 0 0 1 1 0 0 0 1 1 1 0 0 0 1 1 1 1 0 0 0 1 1 1 1 0 0 0 1 1 1 1 0 0 0 1 1 1 1 0 0 0 1 1 1 1 0 0 0 1 1 1 1 0 0 0 1 1 1 0 0 0 1 1 1 0 0 0 1 1 1 1 0 0 0 1 1 1 1 0 0 0 1 1 1 1 1 0 0 0 1 1 1 1 1 0 0 0 1 1 1 1 0 0 0 1 1 1 1 0 0 0 1 1 1 0 0 0 1 1 1 0 0 0 1 1 1 1 0 0 0 1 1 1 1 1 0 0 0 1 1 1 1 0 0 0 1 1 1 1 0 0 0 1 1 1 1 0 0 0 1 1 1 1 0 0 0 1 1 1 1 0 0 0 1 1 1 1 0 0 0 1 1 1 1 0 0 0 1 1 1 1 0 0 0 1 1 1 1 1 0 0 0 1 1 1 1 0 0 0 1 1 1 0 0 0 1 1 1 0 0 0 1 1 1 1 0 0 0 1 1 1 1 1 0 0 0 1 1 1 1 0 0 0 1 1 1 1 0 0 0 1 1 1 1 0 0 0 1 1 1 1 0 0 0 1 1 1 1 0 0 0 1 1 1 1 0 0 0 1 1 1 1 0 0 0 1 1 1 1 0 0 0 1 1 1 1 1 0 0 0 1 1 1 1 0 0 0 1 1 1 0 0 0 1 1 1 0 0 0 1 1 1 1 0 0 0 1 1 1 1 0 0 0 1 1 1 1 1 0 0 0 1 1 1 1 1 0 0 0 1 1 1 1 0 0 0 1 1 1 1 0 0 0 1 1 1 0 0 0 1 1 1 0 0 0 1 1 1 1 0 0 0 1 1 1 1 0 0 0 1 1 1 1 0 0 0 1 1 1 1 0 0 0 1 1 1 1 0 0 0 1 1 1 1 0 0 0 1 1 1 0 0 0 1 1 0 0 0 1 1 1 0 0 0 1 1 1 0 0 0 1 1 1 0 0 0 1 1 1 0 0 0 1 1 1 0 0 0 1 1 1 0 0 0 1 1 0 0 0 1 1 0 0 1 1 1 0 0 1 1 1 0 0 1 1 1 0 0 1 1 1 0 0 1 1 1 0 0 1 1 1 0 0 1 1 0 0 1 1 1 0 0 1 1 1 1 0 0 1 1 1 1 0 0 1 1 1 1 0 0 1 1 1 1 0 0 1 1 1 1 0 0 1 1 1 1 0 0 1 1 1 0 0 1 1 1 0 0 1 1 1 1 0 0 1 1 1 1 0 0 1 1 1 1 1 0 0 1 1 1 1 1 0 0 1 1 1 1 0 0 1 1 1 1 0 0 1 1 1 0 0 1 1 1 0 0 1 1 1 1 0 0 1 1 1 1 1 0 0 1 1 1 1 0 0 1 1 1 1 0 0 1 1 1 1 0 0 1 1 1 1 0 0 1 1 1 1 0 0 1 1 1 1 0 0 1 1 1 1 0 0 1 1 1 1 0 0 1 1 1 1 1 0 0 1 1 1 1 0 0 1 1 1 0 0 1 1 1 0 0 1 1 1 1 0 0 1 1 1 1 1 0 0 1 1 1 1 0 0 1 1 1 1 0 0 1 1 1 1 0 0 1 1 1 1 0 0 1 1 1 1 0 0 1 1 1 1 0 0 1 1 1 1 0 0 1 1 1 1 0 0 1 1 1 1 1 0 0 1 1 1 1 0 0 1 1 1 0 0 1 1 1 0 0 1 1 1 1 0 0 1 1 1 1 0 0 1 1 1 1 1 0 0 1 1 1 1 1 0 0 1 1 1 1 0 0 1 1 1 1 0 0 1 1 1 0 0 1 1 1 0 0 1 1 1 1 0 0 1 1 1 1 0 0 1 1 1 1 0 0 1 1 1 1 0 0 1 1 1 1 0 0 1 1 1 1 0 0 1 1 1 0 0 1 1 0 0 1 1 1 0 0 1 1 1 0 0 1 1 1 0 0 1 1 1 0 0 1 1 1 0 0 1 1 1 0 0 1 1 
  CL12
    INTERNAL  FACTOR  1 IPRN
0.0 50.0 50.0 5.0 0.0 50.0 50.0 50.0 5.0 0.0 50.0 50.0 50.0 5.0 0.0 50.0 50.0 50.0 5.0 0.0 50.0 50.0 50.0 5.0 0.0 50.0 50.0 50.0 5.0 0.0 50.0 50.0 50.0 5.0 0.0 50.0 50.0 5.0 0.0 50.0 50.0 50.0 5.0 0.0 50.0 50.0 50.0 50.0 5.0 0.0 50.0 50.0 50.0 50.0 5.0 0.0 50.0 50.0 50.0 50.0 5.0 0.0 50.0 50.0 50.0 50.0 5.0 0.0 50.0 50.0 50.0 50.0 5.0 0.0 50.0 50.0 50.0 50.0 5.0 0.0 50.0 50.0 50.0 5.0 0.0 50.0 50.0 50.0 5.0 0.0 50.0 50.0 50.0 50.0 5.0 0.0 50.0 50.0 50.0 50.0 5.0 0.0 50.0 50.0 50.0 50.0 50.0 5.0 0.0 50.0 50.0 50.0 50.0 50.0 5.0 0.0 50.0 50.0 50.0 50.0 5.0 0.0 50.0 50.0 50.0 50.0 5.0 0.0 50.0 50.0 50.0 5.0 0.0 50.0 50.0 50.0 5.0 0.0 50.0 50.0 50.0 50.0 5.0 0.0 50.0 50.0 50.0 50.0 50.0 5.0 0.0 25.0 25.0 25.0 25.0 5.0 0.0 25.0 25.0 25.0 25.0 5.0 0.0 25.0 25.0 25.0 25.0 5.0 0.0 25.0 25.0 25.0 25.0 5.0 0.0 25.0 25.0 25.0 25.0 5.0 0.0 25.0 25.0 25.0 25.0 5.0 0.0 25.0 25.0 25.0 25.0 5.0 0.0 25.0 25.0 25.0 25.0 5.0 0.0 50.0 50.0 50.0 50.0 50.0 5.0 0.0 50.0 50.0 50.0 50.0 5.0 0.0 50.0 50.0 50.0 5.0 0.0 50.0 50.0 50.0 5.0 0.0 50.0 50.0 50.0 50.0 5.0 0.0 50.0 50.0 50.0 50.0 50.0 5.0 0.0 25.0 25.0 25.0 25.0 5.0 0.0 25.0 25.0 25.0 25.0 5.0 0.0 25.0 25.0 25.0 25.0 5.0 0.0 25.0 25.0 25.0 25.0 5.0 0.0 25.0 25.0 25.0 25.0 5.0 0.0 25.0 25.0 25.0 25.0 5.0 0.0 25.0 25.0 25.0 25.0 5.0 0.0 25.0 25.0 25.0 25.0 5.0 0.0 50.0 50.0 50.0 50.0 50.0 5.0 0.0 50.0 50.0 50.0 50.0 5.0 0.0 50.0 50.0 50.0 5.0 0.0 50.0 50.0 50.0 5.0 0.0 50.0 50.0 50.0 50.0 5.0 0.0 50.0 50.0 50.0 50.0 5.0 0.0 50.0 50.0 50.0 50.0 50.0 5.0 0.0 50.0 50.0 50.0 50.0 50.0 5.0 0.0 50.0 50.0 50.0 50.0 5.0 0.0 50.0 50.0 50.0 50.0 5.0 0.0 50.0 50.0 50.0 5.0 0.0 50.0 50.0 50.0 5.0 0.0 50.0 50.0 50.0 50.0 5.0 0.0 50.0 50.0 50.0 50.0 5.0 0.0 50.0 50.0 50.0 50.0 5.0 0.0 50.0 50.0 50.0 50.0 5.0 0.0 50.0 50.0 50.0 50.0 5.0 0.0 50.0 50.0 50.0 50.0 5.0 0.0 50.0 50.0 50.0 5.0 0.0 50.0 50.0 5.0 0.0 50.0 50.0 50.0 5.0 0.0 50.0 50.0 50.0 5.0 0.0 50.0 50.0 50.0 5.0 0.0 50.0 50.0 50.0 5.0 0.0 50.0 50.0 50.0 5.0 0.0 50.0 50.0 50.0 5.0 0.0 50.0 50.0 5.0 0.0 5.0 50.0 50.0 5.0 0.0 5.0 50.0 50.0 50.0 5.0 0.0 5.0 50.0 50.0 50.0 5.0 0.0 5.0 50.0 50.0 50.0 5.0 0.0 5.0 50.0 50.0 50.0 5.0 0.0 5.0 50.0 50.0 50.0 5.0 0.0 5.0 50.0 50.0 50.0 5.0 0.0 5.0 50.0 50.0 5.0 0.0 5.0 50.0 50.0 50.0 5.0 0.0 5.0 50.0 50.0 50.0 50.0 5.0 0.0 5.0 50.0 50.0 50.0 50.0 5.0 0.0 5.0 50.0 50.0 50.0 50.0 5.0 0.0 5.0 50.0 50.0 50.0 50.0 5.0 0.0 5.0 50.0 50.0 50.0 50.0 5.0 0.0 5.0 50.0 50.0 50.0 50.0 5.0 0.0 5.0 50.0 50.0 50.0 5.0 0.0 5.0 50.0 50.0 50.0 5.0 0.0 5.0 50.0 50.0 50.0 50.0 5.0 0.0 5.0 50.0 50.0 50.0 50.0 5.0 0.0 5.0 50.0 50.0 50.0 50.0 50.0 5.0 0.0 5.0 50.0 50.0 50.0 50.0 50.0 5.0 0.0 5.0 50.0 50.0 50.0 50.0 5.0 0.0 5.0 50.0 50.0 50.0 50.0 5.0 0.0 5.0 50.0 50.0 50.0 5.0 0.0 5.0 50.0 50.0 50.0 5.0 0.0 5.0 50.0 50.0 50.0 50.0 5.0 0.0 5.0 50.0 50.0 50.0 50.0 50.0 5.0 0.0 5.0 25.0 25.0 25.0 25.0 5.0 0.0 5.0 25.0 25.0 25.0 25.0 5.0 0.0 5.0 25.0 25.0 25.0 25.0 5.0 0.0 5.0 25.0 25.0 25.0 25.0 5.0 0.0 5.0 25.0 25.0 25.0 25.0 5.0 0.0 5.0 25.0 25.0 25.0 25.0 5.0 0.0 5.0 25.0 25.0 25.0 25.0 5.0 0.0 5.0 25.0 25.0 25.0 25.0 5.0 0.0 5.0 50.0 50.0 50.0 50.0 50.0 5.0 0.0 5.0 50.0 50.0 50.0 50.0 5.0 0.0 5.0 50.0 50.0 50.0 5.0 0.0 5.0 50.0 50.0 50.0 5.0 0.0 5.0 50.0 50.0 50.0 50.0 5.0 0.0 5.0 50.0 50.0 50.0 50.0 50.0 5.0 0.0 5.0 25.0 25.0 25.0 25.0 5.0 0.0 5.0 25.0 25.0 25.0 25.0 5.0 0.0 5.0 25.0 25.0 25.0 25.0 5.0 0.0 5.0 25.0 25.0 25.0 25.0 5.0 0.0 5.0 25.0 25.0 25.0 25.0 5.0 0.0 5.0 25.0 25.0 25.0 25.0 5.0 0.0 5.0 25.0 25.0 25.0 25.0 5.0 0.0 5.0 25.0 25.0 25.0 25.0 5.0 0.0 5.0 50.0 50.0 50.0 50.0 50.0 5.0 0.0 5.0 50.0 50.0 50.0 50.0 5.0 0.0 5.0 50.0 50.0 50.0 5.0 0.0 5.0 50.0 50.0 50.0 5.0 0.0 5.0 50.0 50.0 50.0 50.0 5.0 0.0 5.0 50.0 50.0 50.0 50.0 5.0 0.0 5.0 50.0 50.0 50.0 50.0 50.0 5.0 0.0 5.0 50.0 50.0 50.0 50.0 50.0 5.0 0.0 5.0 50.0 50.0 50.0 50.0 5.0 0.0 5.0 50.0 50.0 50.0 50.0 5.0 0.0 5.0 50.0 50.0 50.0 5.0 0.0 5.0 50.0 50.0 50.0 5.0 0.0 5.0 50.0 50.0 50.0 50.0 5.0 0.0 5.0 50.0 50.0 50.0 50.0 5.0 0.0 5.0 50.0 50.0 50.0 50.0 5.0 0.0 5.0 50.0 50.0 50.0 50.0 5.0 0.0 5.0 50.0 50.0 50.0 50.0 5.0 0.0 5.0 50.0 50.0 50.0 50.0 5.0 0.0 5.0 50.0 50.0 50.0 5.0 0.0 5.0 50.0 50.0 5.0 0.0 5.0 50.0 50.0 50.0 5.0 0.0 5.0 50.0 50.0 50.0 5.0 0.0 5.0 50.0 50.0 50.0 5.0 0.0 5.0 50.0 50.0 50.0 5.0 0.0 5.0 50.0 50.0 50.0 5.0 0.0 5.0 50.0 50.0 50.0 5.0 0.0 5.0 50.0 50.0 5.0 0.0 5.0 50.0 50.0 0.0 5.0 50.0 50.0 50.0 0.0 5.0 50.0 50.0 50.0 0.0 5.0 50.0 50.0 50.0 0.0 5.0 50.0 50.0 50.0 0.0 5.0 50.0 50.0 50.0 0.0 5.0 50.0 50.0 50.0 0.0 5.0 50.0 50.0 0.0 5.0 50.0 50.0 50.0 0.0 5.0 50.0 50.0 50.0 50.0 0.0 5.0 50.0 50.0 50.0 50.0 0.0 5.0 50.0 50.0 50.0 50.0 0.0 5.0 50.0 50.0 50.0 50.0 0.0 5.0 50.0 50.0 50.0 50.0 0.0 5.0 50.0 50.0 50.0 50.0 0.0 5.0 50.0 50.0 50.0 0.0 5.0 50.0 50.0 50.0 0.0 5.0 50.0 50.0 50.0 50.0 0.0 5.0 50.0 50.0 50.0 50.0 0.0 5.0 50.0 50.0 50.0 50.0 50.0 0.0 5.0 50.0 50.0 50.0 50.0 50.0 0.0 5.0 50.0 50.0 50.0 50.0 0.0 5.0 50.0 50.0 50.0 50.0 0.0 5.0 50.0 50.0 50.0 0.0 5.0 50.0 50.0 50.0 0.0 5.0 50.0 50.0 50.0 50.0 0.0 5.0 50.0 50.0 50.0 50.0 50.0 0.0 5.0 25.0 25.0 25.0 25.0 0.0 5.0 25.0 25.0 25.0 25.0 0.0 5.0 25.0 25.0 25.0 25.0 0.0 5.0 25.0 25.0 25.0 25.0 0.0 5.0 25.0 25.0 25.0 25.0 0.0 5.0 25.0 25.0 25.0 25.0 0.0 5.0 25.0 25.0 25.0 25.0 0.0 5.0 25.0 25.0 25.0 25.0 0.0 5.0 50.0 50.0 50.0 50.0 50.0 0.0 5.0 50.0 50.0 50.0 50.0 0.0 5.0 50.0 50.0 50.0 0.0 5.0 50.0 50.0 50.0 0.0 5.0 50.0 50.0 50.0 50.0 0.0 5.0 50.0 50.0 50.0 50.0 50.0 0.0 5.0 25.0 25.0 25.0 25.0 0.0 5.0 25.0 25.0 25.0 25.0 0.0 5.0 25.0 25.0 25.0 25.0 0.0 5.0 25.0 25.0 25.0 25.0 0.0 5.0 25.0 25.0 25.0 25.0 0.0 5.0 25.0 25.0 25.0 25.0 0.0 5.0 25.0 25.0 25.0 25.0 0.0 5.0 25.0 25.0 25.0 25.0 0.0 5.0 50.0 50.0 50.0 50.0 50.0 0.0 5.0 50.0 50.0 50.0 50.0 0.0 5.0 50.0 50.0 50.0 0.0 5.0 50.0 50.0 50.0 0.0 5.0 50.0 50.0 50.0 50.0 0.0 5.0 50.0 50.0 50.0 50.0 0.0 5.0 50.0 50.0 50.0 50.0 50.0 0.0 5.0 50.0 50.0 50.0 50.0 50.0 0.0 5.0 50.0 50.0 50.0 50.0 0.0 5.0 50.0 50.0 50.0 50.0 0.0 5.0 50.0 50.0 50.0 0.0 5.0 50.0 50.0 50.0 0.0 5.0 50.0 50.0 50.0 50.0 0.0 5.0 50.0 50.0 50.0 50.0 0.0 5.0 50.0 50.0 50.0 50.0 0.0 5.0 50.0 50.0 50.0 50.0 0.0 5.0 50.0 50.0 50.0 50.0 0.0 5.0 50.0 50.0 50.0 50.0 0.0 5.0 50.0 50.0 50.0 0.0 5.0 50.0 50.0 0.0 5.0 50.0 50.0 50.0 0.0 5.0 50.0 50.0 50.0 0.0 5.0 50.0 50.0 50.0 0.0 5.0 50.0 50.0 50.0 0.0 5.0 50.0 50.0 50.0 0.0 5.0 50.0 50.0 50.0 0.0 5.0 50.0 50.0 
  HWVA
    INTERNAL  FACTOR  1 IPRN
0.0 100.0 100.0 10000.0 0.0 100.0 100.0 100.0 10000.0 0.0 100.0 100.0 100.0 10000.0 0.0 100.0 100.0 100.0 10000.0 0.0 100.0 100.0 100.0 10000.0 0.0 100.0 100.0 100.0 10000.0 0.0 100.0 100.0 100.0 10000.0 0.0 100.0 100.0 10000.0 0.0 100.0 100.0 100.0 10000.0 0.0 100.0 100.0 100.0 100.0 10000.0 0.0 100.0 100.0 100.0 100.0 10000.0 0.0 100.0 100.0 100.0 100.0 10000.0 0.0 100.0 100.0 100.0 100.0 10000.0 0.0 100.0 100.0 100.0 100.0 10000.0 0.0 100.0 100.0 100.0 100.0 10000.0 0.0 100.0 100.0 100.0 10000.0 0.0 100.0 100.0 100.0 10000.0 0.0 100.0 100.0 100.0 100.0 10000.0 0.0 100.0 100.0 100.0 100.0 10000.0 0.0 100.0 100.0 100.0 50.0 50.0 10000.0 0.0 100.0 100.0 100.0 50.0 50.0 10000.0 0.0 100.0 100.0 100.0 100.0 10000.0 0.0 100.0 100.0 100.0 100.0 10000.0 0.0 100.0 100.0 100.0 10000.0 0.0 100.0 100.0 100.0 10000.0 0.0 100.0 100.0 100.0 100.0 10000.0 0.0 100.0 100.0 50.0 50.0 100.0 10000.0 0.0 50.0 50.0 50.0 50.0 2500.0 0.0 50.0 50.0 50.0 50.0 2500.0 0.0 50.0 50.0 50.0 50.0 2500.0 0.0 50.0 50.0 50.0 50.0 2500.0 0.0 50.0 50.0 50.0 50.0 2500.0 0.0 50.0 50.0 50.0 50.0 2500.0 0.0 50.0 50.0 50.0 50.0 2500.0 0.0 50.0 50.0 50.0 50.0 2500.0 0.0 100.0 50.0 50.0 100.0 100.0 10000.0 0.0 100.0 100.0 100.0 100.0 10000.0 0.0 100.0 100.0 100.0 10000.0 0.0 100.0 100.0 100.0 10000.0 0.0 100.0 100.0 100.0 100.0 10000.0 0.0 100.0 100.0 50.0 50.0 100.0 10000.0 0.0 50.0 50.0 50.0 50.0 2500.0 0.0 50.0 50.0 50.0 50.0 2500.0 0.0 50.0 50.0 50.0 50.0 2500.0 0.0 50.0 50.0 50.0 50.0 2500.0 0.0 50.0 50.0 50.0 50.0 2500.0 0.0 50.0 50.0 50.0 50.0 2500.0 0.0 50.0 50.0 50.0 50.0 2500.0 0.0 50.0 50.0 50.0 50.0 2500.0 0.0 100.0 50.0 50.0 100.0 100.0 10000.0 0.0 100.0 100.0 100.0 100.0 10000.0 0.0 100.0 100.0 100.0 10000.0 0.0 100.0 100.0 100.0 10000.0 0.0 100.0 100.0 100.0 100.0 10000.0 0.0 100.0 100.0 100.0 100.0 10000.0 0.0 50.0 50.0 100.0 100.0 100.0 10000.0 0.0 50.0 50.0 100.0 100.0 100.0 10000.0 0.0 100.0 100.0 100.0 100.0 10000.0 0.0 100.0 100.0 100.0 100.0 10000.0 0.0 100.0 100.0 100.0 10000.0 0.0 100.0 100.0 100.0 10000.0 0.0 100.0 100.0 100.0 100.0 10000.0 0.0 100.0 100.0 100.0 100.0 10000.0 0.0 100.0 100.0 100.0 100.0 10000.0 0.0 100.0 100.0 100.0 100.0 10000.0 0.0 100.0 100.0 100.0 100.0 10000.0 0.0 100.0 100.0 100.0 100.0 10000.0 0.0 100.0 100.0 100.0 10000.0 0.0 100.0 100.0 10000.0 0.0 100.0 100.0 100.0 10000.0 0.0 100.0 100.0 100.0 10000.0 0.0 100.0 100.0 100.0 10000.0 0.0 100.0 100.0 100.0 10000.0 0.0 100.0 100.0 100.0 10000.0 0.0 100.0 100.0 100.0 10000.0 0.0 100.0 100.0 10000.0 0.0 10000.0 100.0 100.0 10000.0 0.0 10000.0 100.0 100.0 100.0 10000.0 0.0 10000.0 100.0 100.0 100.0 10000.0 0.0 10000.0 100.0 100.0 100.0 10000.0 0.0 10000.0 100.0 100.0 100.0 10000.0 0.0 10000.0 100.0 100.0 100.0 10000.0 0.0 10000.0 100.0 100.0 100.0 10000.0 0.0 10000.0 100.0 100.0 10000.0 0.0 10000.0 100.0 100.0 100.0 10000.0 0.0 10000.0 100.0 100.0 100.0 100.0 10000.0 0.0 10000.0 100.0 100.0 100.0 100.0 10000.0 0.0 10000.0 100.0 100.0 100.0 100.0 10000.0 0.0 10000.0 100.0 100.0 100.0 100.0 10000.0 0.0 10000.0 100.0 100.0 100.0 100.0 10000.0 0.0 10000.0 100.0 100.0 100.0 100.0 10000.0 0.0 10000.0 100.0 100.0 100.0 10000.0 0.0 10000.0 100.0 100.0 100.0 10000.0 0.0 10000.0 100.0 100.0 100.0 100.0 10000.0 0.0 10000.0 100.0 100.0 100.0 100.0 10000.0 0.0 10000.0 100.0 100.0 100.0 50.0 50.0 10000.0 0.0 10000.0 100.0 100.0 100.0 50.0 50.0 10000.0 0.0 10000.0 100.0 100.0 100.0 100.0 10000.0 0.0 10000.0 100.0 100.0 100.0 100.0 10000.0 0.0 10000.0 100.0 100.0 100.0 10000.0 0.0 10000.0 100.0 100.0 100.0 10000.0 0.0 10000.0 100.0 100.0 100.0 100.0 10000.0 0.0 10000.0 100.0 100.0 50.0 50.0 100.0 10000.0 0.0 2500.0 50.0 50.0 50.0 50.0 2500.0 0.0 2500.0 50.0 50.0 50.0 50.0 2500.0 0.0 2500.0 50.0 50.0 50.0 50.0 2500.0 0.0 2500.0 50.0 50.0 50.0 50.0 2500.0 0.0 2500.0 50.0 50.0 50.0 50.0 2500.0 0.0 2500.0 50.0 50.0 50.0 50.0 2500.0 0.0 2500.0 50.0 50.0 50.0 50.0 2500.0 0.0 2500.0 50.0 50.0 50.0 50.0 2500.0 0.0 10000.0 100.0 50.0 50.0 100.0 100.0 10000.0 0.0 10000.0 100.0 100.0 100.0 100.0 10000.0 0.0 10000.0 100.0 100.0 100.0 10000.0 0.0 10000.0 100.0 100.0 100.0 10000.0 0.0 10000.0 100.0 100.0 100.0 100.0 10000.0 0.0 10000.0 100.0 100.0 50.0 50.0 100.0 10000.0 0.0 2500.0 50.0 50.0 50.0 50.0 2500.0 0.0 2500.0 50.0 50.0 50.0 50.0 2500.0 0.0 2500.0 50.0 50.0 50.0 50.0 2500.0 0.0 2500.0 50.0 50.0 50.0 50.0 2500.0 0.0 2500.0 50.0 50.0 50.0 50.0 2500.0 0.0 2500.0 50.0 50.0 50.0 50.0 2500.0 0.0 2500.0 50.0 50.0 50.0 50.0 2500.0 0.0 2500.0 50.0 50.0 50.0 50.0 2500.0 0.0 10000.0 100.0 50.0 50.0 100.0 100.0 10000.0 0.0 10000.0 100.0 100.0 100.0 100.0 10000.0 0.0 10000.0 100.0 100.0 100.0 10000.0 0.0 10000.0 100.0 100.0 100.0 10000.0 0.0 10000.0 100.0 100.0 100.0 100.0 10000.0 0.0 10000.0 100.0 100.0 100.0 100.0 10000.0 0.0 10000.0 50.0 50.0 100.0 100.0 100.0 10000.0 0.0 10000.0 50.0 50.0 100.0 100.0 100.0 10000.0 0.0 10000.0 100.0 100.0 100.0 100.0 10000.0 0.0 10000.0 100.0 100.0 100.0 100.0 10000.0 0.0 10000.0 100.0 100.0 100.0 10000.0 0.0 10000.0 100.0 100.0 100.0 10000.0 0.0 10000.0 100.0 100.0 100.0 100.0 10000.0 0.0 10000.0 100.0 100.0 100.0 100.0 10000.0 0.0 10000.0 100.0 100.0 100.0 100.0 10000.0 0.0 10000.0 100.0 100.0 100.0 100.0 10000.0 0.0 10000.0 100.0 100.0 100.0 100.0 10000.0 0.0 10000.0 100.0 100.0 100.0 100.0 10000.0 0.0 10000.0 100.0 100.0 100.0 10000.0 0.0 10000.0 100.0 100.0 10000.0 0.0 10000.0 100.0 100.0 100.0 10000.0 0.0 10000.0 100.0 100.0 100.0 10000.0 0.0 10000.0 100.0 100.0 100.0 10000.0 0.0 10000.0 100.0 100.0 100.0 10000.0 0.0 10000.0 100.0 100.0 100.0 10000.0 0.0 10000.0 100.0 100.0 100.0 10000.0 0.0 10000.0 100.0 100.0 10000.0 0.0 10000.0 100.0 100.0 0.0 10000.0 100.0 100.0 100.0 0.0 10000.0 100.0 100.0 100.0 0.0 10000.0 100.0 100.0 100.0 0.0 10000.0 100.0 100.0 100.0 0.0 10000.0 100.0 100.0 100.0 0.0 10000.0 100.0 100.0 100.0 0.0 10000.0 100.0 100.0 0.0 10000.0 100.0 100.0 100.0 0.0 10000.0 100.0 100.0 100.0 100.0 0.0 10000.0 100.0 100.0 100.0 100.0 0.0 10000.0 100.0 100.0 100.0 100.0 0.0 10000.0 100.0 100.0 100.0 100.0 0.0 10000.0 100.0 100.0 100.0 100.0 0.0 10000.0 100.0 100.0 100.0 100.0 0.0 10000.0 100.0 100.0 100.0 0.0 10000.0 100.0 100.0 100.0 0.0 10000.0 100.0 100.0 100.0 100.0 0.0 10000.0 100.0 100.0 100.0 100.0 0.0 10000.0 100.0 100.0 100.0 50.0 50.0 0.0 10000.0 100.0 100.0 100.0 50.0 50.0 0.0 10000.0 100.0 100.0 100.0 100.0 0.0 10000.0 100.0 100.0 100.0 100.0 0.0 10000.0 100.0 100.0 100.0 0.0 10000.0 100.0 100.0 100.0 0.0 10000.0 100.0 100.0 100.0 100.0 0.0 10000.0 100.0 100.0 50.0 50.0 100.0 0.0 2500.0 50.0 50.0 50.0 50.0 0.0 2500.0 50.0 50.0 50.0 50.0 0.0 2500.0 50.0 50.0 50.0 50.0 0.0 2500.0 50.0 50.0 50.0 50.0 0.0 2500.0 50.0 50.0 50.0 50.0 0.0 2500.0 50.0 50.0 50.0 50.0 0.0 2500.0 50.0 50.0 50.0 50.0 0.0 2500.0 50.0 50.0 50.0 50.0 0.0 10000.0 100.0 50.0 50.0 100.0 100.0 0.0 10000.0 100.0 100.0 100.0 100.0 0.0 10000.0 100.0 100.0 100.0 0.0 10000.0 100.0 100.0 100.0 0.0 10000.0 100.0 100.0 100.0 100.0 0.0 10000.0 100.0 100.0 50.0 50.0 100.0 0.0 2500.0 50.0 50.0 50.0 50.0 0.0 2500.0 50.0 50.0 50.0 50.0 0.0 2500.0 50.0 50.0 50.0 50.0 0.0 2500.0 50.0 50.0 50.0 50.0 0.0 2500.0 50.0 50.0 50.0 50.0 0.0 2500.0 50.0 50.0 50.0 50.0 0.0 2500.0 50.0 50.0 50.0 50.0 0.0 2500.0 50.0 50.0 50.0 50.0 0.0 10000.0 100.0 50.0 50.0 100.0 100.0 0.0 10000.0 100.0 100.0 100.0 100.0 0.0 10000.0 100.0 100.0 100.0 0.0 10000.0 100.0 100.0 100.0 0.0 10000.0 100.0 100.0 100.0 100.0 0.0 10000.0 100.0 100.0 100.0 100.0 0.0 10000.0 50.0 50.0 100.0 100.0 100.0 0.0 10000.0 50.0 50.0 100.0 100.0 100.0 0.0 10000.0 100.0 100.0 100.0 100.0 0.0 10000.0 100.0 100.0 100.0 100.0 0.0 10000.0 100.0 100.0 100.0 0.0 10000.0 100.0 100.0 100.0 0.0 10000.0 100.0 100.0 100.0 100.0 0.0 10000.0 100.0 100.0 100.0 100.0 0.0 10000.0 100.0 100.0 100.0 100.0 0.0 10000.0 100.0 100.0 100.0 100.0 0.0 10000.0 100.0 100.0 100.0 100.0 0.0 10000.0 100.0 100.0 100.0 100.0 0.0 10000.0 100.0 100.0 100.0 0.0 10000.0 100.0 100.0 0.0 10000.0 100.0 100.0 100.0 0.0 10000.0 100.0 100.0 100.0 0.0 10000.0 100.0 100.0 100.0 0.0 10000.0 100.0 100.0 100.0 0.0 10000.0 100.0 100.0 100.0 0.0 10000.0 100.0 100.0 100.0 0.0 10000.0 100.0 100.0 
  ANGLDEGX
    INTERNAL  FACTOR  1 IPRN