BEGIN OPTIONS
  PRINT_INPUT
  PRINT_FLOWS
END OPTIONS

BEGIN DIMENSIONS
  NUMGNC 48
  NUMALPHAJ 2
END DIMENSIONS

BEGIN GNCDATA
20	28	19	19	0.125	0.125
27	28	19	19	0.125	0.125
20	29	21	21	0.125	0.125
27	30	41	41	0.125	0.125
21	32	20	20	0.125	0.125
21	33	22	22	0.125	0.125
36	33	22	22	0.125	0.125
36	35	50	50	0.125	0.125
41	42	27	27	0.125	0.125
56	44	55	55	0.125	0.125
41	44	55	55	0.125	0.125
56	45	57	57	0.125	0.125
50	47	36	36	0.125	0.125
57	48	56	56	0.125	0.125
50	49	58	58	0.125	0.125
57	49	58	58	0.125	0.125
96	104	95	95	0.125	0.125
103	104	95	95	0.125	0.125
96	105	97	97	0.125	0.125
103	106	117	117	0.125	0.125
97	108	96	96	0.125	0.125
97	109	98	98	0.125	0.125
112	109	98	98	0.125	0.125
112	111	126	126	0.125	0.125
117	118	103	103	0.125	0.125
132	120	131	131	0.125	0.125
117	120	131	131	0.125	0.125
132	121	133	133	0.125	0.125
126	123	112	112	0.125	0.125
133	124	132	132	0.125	0.125
126	125	134	134	0.125	0.125
133	125	134	134	0.125	0.125
172	180	171	171	0.125	0.125
179	180	171	171	0.125	0.125
172	181	173	173	0.125	0.125
179	182	193	193	0.125	0.125
173	184	172	172	0.125	0.125
173	185	174	174	0.125	0.125
188	185	174	174	0.125	0.125
188	187	202	202	0.125	0.125
193	194	179	179	0.125	0.125
208	196	207	207	0.125	0.125
193	196	207	207	0.125	0.125
208	197	209	209	0.125	0.125
202	199	188	188	0.125	0.125
209	200	208	208	0.125	0.125
202	201	210	210	0.125	0.125
209	201	210	210	0.125	0.125
END GNCDATA
