BEGIN OPTIONS
END OPTIONS

BEGIN GRIDDATA
STRT
  CONSTANT 1.0
END GRIDDATA
