BEGIN DIMENSIONS
  NCELLS 200
END DIMENSIONS

BEGIN GRIDDATA
  IZONE
    INTERNAL  FACTOR 1    IPRN  12
    1 1 1 1 1 1 1 1 1 1
    1 1 1 1 1 1 1 1 1 1
    1 1 1 1 1 1 1 1 1 1
    1 1 1 1 1 1 1 1 1 1
    1 1 1 1 1 1 1 1 1 1
    1 1 1 1 1 1 1 1 1 1
    1 1 1 1 1 1 1 1 1 1
    1 1 1 1 1 1 1 1 1 1
    1 1 1 1 1 1 1 1 1 1
    1 1 1 1 1 1 1 1 1 1
    2 2 2 2 2 2 2 2 2 2
    2 2 2 2 2 2 2 2 2 2
    2 2 2 2 2 2 2 2 2 2
    2 2 2 2 2 2 2 2 2 2
    2 2 2 2 2 2 2 2 2 2
    2 2 2 2 2 2 2 2 2 2
    2 2 2 2 2 2 2 2 2 2
    2 2 2 2 2 2 2 2 2 2
    2 2 2 2 2 2 2 2 2 2
    2 2 2 2 2 2 2 2 2 2
END GRIDDATA
