BEGIN OPTIONS
  DIGITS 8
END OPTIONS

BEGIN CONTINUOUS FILEOUT uzfp2.uzf.csv
  WC_1_DPTH_1       WATER-CONTENT 1        1.0   (UZF CELL 1)
  WC_ONE_DPTH_1     WATER-CONTENT UZF_1_1  1.0   (UZF CELL 1)
  WC_1_DPTH_4       WATER-CONTENT 1        4.0   (UZF CELL 1)
  WC_ONE_DPTH_4     WATER-CONTENT UZF_1_1  4.0   (UZF CELL 1)
  WC_THREE_DPTH_5   WATER-CONTENT UZF_3    5.0   (UZF CELL 9)
  INF_FOUR          INFILTRATION UZF_4          (UZF CELLS 16-24)
  UZF-GWET_ONE          UZF-GWET         UZF_1_1        (UZF CELL 1)
  UZET_ONE          UZET         UZF_1_1        (UZF CELL 1)
  UZF-GWRCH_ONE      UZF-GWRCH     UZF_1_1        (UZF CELL 1)
  UZF-GWD_ONE     UZF-GWD    UZF_1_1        (UZF CELL 1)
END CONTINUOUS
