begin options
  PRINT_INPUT
  PRINT_FLOWS
end options

begin dimensions
  MAXBOUND 3200
end dimensions

begin period 1
         4         1         1      5200
         4         1         2      5200
         4         1         3      5200
         4         1         4      5200
         4         1         5      5200
         4         1         6      5200
         4         1         7      5200
         4         1         8      5200
         4         1         9      5200
         4         1        10      5200
         4         1        11      5200
         4         1        12      5200
         4         1        13      5200
         4         1        14      5200
         4         1        15      5200
         4         1        16      5200
         4         1        17      5200
         4         1        18      5200
         4         1        19      5200
         4         1        20      5200
         4         1        21      5200
         4         1        22      5200
         4         1        23      5200
         4         1        24      5200
         4         1        25      5200
         4         1        26      5200
         4         1        27      5200
         4         1        28      5200
         4         1        29      5200
         4         1        30      5200
         4         1        31      5200
         4         1        32      5200
         4         1        33      5200
         4         1        34      5200
         4         1        35      5200
         4         1        36      5200
         4         1        37      5200
         4         1        38      5200
         4         1        39      5200
         4         1        40      5200
         4         1        41      5200
         4         1        42      5200
         4         1        43      5200
         4         1        44      5200
         4         1        45      5200
         4         1        46      5200
         4         1        47      5200
         4         1        48      5200
         4         1        49      5200
         4         1        50      5200
         4         1        51      5200
         4         1        52      5200
         4         1        53      5200
         4         1        54      5200
         4         1        55      5200
         4         1        56      5200
         4         1        57      5200
         4         1        58      5200
         4         1        59      5200
         4         1        60      5200
         4         1        61      5200
         4         1        62      5200
         4         1        63      5200
         4         1        64      5200
         4         1        65      5200
         4         1        66      5200
         4         1        67      5200
         4         1        68      5200
         4         1        69      5200
         4         1        70      5200
         4         1        71      5200
         4         1        72      5200
         4         1        73      5200
         4         1        74      5200
         4         1        75      5200
         4         1        76      5200
         4         1        77      5200
         4         1        78      5200
         4         1        79      5200
         4         1        80      5200
         4         2         1      5200
         4         2         2      5200
         4         2         3      5200
         4         2         4      5200
         4         2         5      5200
         4         2         6      5200
         4         2         7      5200
         4         2         8      5200
         4         2         9      5200
         4         2        10      5200
         4         2        11      5200
         4         2        12      5200
         4         2        13      5200
         4         2        14      5200
         4         2        15      5200
         4         2        16      5200
         4         2        17      5200
         4         2        18      5200
         4         2        19      5200
         4         2        20      5200
         4         2        21      5200
         4         2        22      5200
         4         2        23      5200
         4         2        24      5200
         4         2        25      5200
         4         2        26      5200
         4         2        27      5200
         4         2        28      5200
         4         2        29      5200
         4         2        30      5200
         4         2        31      5200
         4         2        32      5200
         4         2        33      5200
         4         2        34      5200
         4         2        35      5200
         4         2        36      5200
         4         2        37      5200
         4         2        38      5200
         4         2        39      5200
         4         2        40      5200
         4         2        41      5200
         4         2        42      5200
         4         2        43      5200
         4         2        44      5200
         4         2        45      5200
         4         2        46      5200
         4         2        47      5200
         4         2        48      5200
         4         2        49      5200
         4         2        50      5200
         4         2        51      5200
         4         2        52      5200
         4         2        53      5200
         4         2        54      5200
         4         2        55      5200
         4         2        56      5200
         4         2        57      5200
         4         2        58      5200
         4         2        59      5200
         4         2        60      5200
         4         2        61      5200
         4         2        62      5200
         4         2        63      5200
         4         2        64      5200
         4         2        65      5200
         4         2        66      5200
         4         2        67      5200
         4         2        68      5200
         4         2        69      5200
         4         2        70      5200
         4         2        71      5200
         4         2        72      5200
         4         2        73      5200
         4         2        74      5200
         4         2        75      5200
         4         2        76      5200
         4         2        77      5200
         4         2        78      5200
         4         2        79      5200
         4         2        80      5200
         4         3         1      5200
         4         3         2      5200
         4         3         3      5200
         4         3         4      5200
         4         3         5      5200
         4         3         6      5200
         4         3         7      5200
         4         3         8      5200
         4         3         9      5200
         4         3        10      5200
         4         3        11      5200
         4         3        12      5200
         4         3        13      5200
         4         3        14      5200
         4         3        15      5200
         4         3        16      5200
         4         3        17      5200
         4         3        18      5200
         4         3        19      5200
         4         3        20      5200
         4         3        21      5200
         4         3        22      5200
         4         3        23      5200
         4         3        24      5200
         4         3        25      5200
         4         3        26      5200
         4         3        27      5200
         4         3        28      5200
         4         3        29      5200
         4         3        30      5200
         4         3        31      5200
         4         3        32      5200
         4         3        33      5200
         4         3        34      5200
         4         3        35      5200
         4         3        36      5200
         4         3        37      5200
         4         3        38      5200
         4         3        39      5200
         4         3        40      5200
         4         3        41      5200
         4         3        42      5200
         4         3        43      5200
         4         3        44      5200
         4         3        45      5200
         4         3        46      5200
         4         3        47      5200
         4         3        48      5200
         4         3        49      5200
         4         3        50      5200
         4         3        51      5200
         4         3        52      5200
         4         3        53      5200
         4         3        54      5200
         4         3        55      5200
         4         3        56      5200
         4         3        57      5200
         4         3        58      5200
         4         3        59      5200
         4         3        60      5200
         4         3        61      5200
         4         3        62      5200
         4         3        63      5200
         4         3        64      5200
         4         3        65      5200
         4         3        66      5200
         4         3        67      5200
         4         3        68      5200
         4         3        69      5200
         4         3        70      5200
         4         3        71      5200
         4         3        72      5200
         4         3        73      5200
         4         3        74      5200
         4         3        75      5200
         4         3        76      5200
         4         3        77      5200
         4         3        78      5200
         4         3        79      5200
         4         3        80      5200
         4         4         1      5200
         4         4         2      5200
         4         4         3      5200
         4         4         4      5200
         4         4         5      5200
         4         4         6      5200
         4         4         7      5200
         4         4         8      5200
         4         4         9      5200
         4         4        10      5200
         4         4        11      5200
         4         4        12      5200
         4         4        13      5200
         4         4        14      5200
         4         4        15      5200
         4         4        16      5200
         4         4        17      5200
         4         4        18      5200
         4         4        19      5200
         4         4        20      5200
         4         4        21      5200
         4         4        22      5200
         4         4        23      5200
         4         4        24      5200
         4         4        25      5200
         4         4        26      5200
         4         4        27      5200
         4         4        28      5200
         4         4        29      5200
         4         4        30      5200
         4         4        31      5200
         4         4        32      5200
         4         4        33      5200
         4         4        34      5200
         4         4        35      5200
         4         4        36      5200
         4         4        37      5200
         4         4        38      5200
         4         4        39      5200
         4         4        40      5200
         4         4        41      5200
         4         4        42      5200
         4         4        43      5200
         4         4        44      5200
         4         4        45      5200
         4         4        46      5200
         4         4        47      5200
         4         4        48      5200
         4         4        49      5200
         4         4        50      5200
         4         4        51      5200
         4         4        52      5200
         4         4        53      5200
         4         4        54      5200
         4         4        55      5200
         4         4        56      5200
         4         4        57      5200
         4         4        58      5200
         4         4        59      5200
         4         4        60      5200
         4         4        61      5200
         4         4        62      5200
         4         4        63      5200
         4         4        64      5200
         4         4        65      5200
         4         4        66      5200
         4         4        67      5200
         4         4        68      5200
         4         4        69      5200
         4         4        70      5200
         4         4        71      5200
         4         4        72      5200
         4         4        73      5200
         4         4        74      5200
         4         4        75      5200
         4         4        76      5200
         4         4        77      5200
         4         4        78      5200
         4         4        79      5200
         4         4        80      5200
         4         5         1      5200
         4         5         2      5200
         4         5         3      5200
         4         5         4      5200
         4         5         5      5200
         4         5         6      5200
         4         5         7      5200
         4         5         8      5200
         4         5         9      5200
         4         5        10      5200
         4         5        11      5200
         4         5        12      5200
         4         5        13      5200
         4         5        14      5200
         4         5        15      5200
         4         5        16      5200
         4         5        17      5200
         4         5        18      5200
         4         5        19      5200
         4         5        20      5200
         4         5        21      5200
         4         5        22      5200
         4         5        23      5200
         4         5        24      5200
         4         5        25      5200
         4         5        26      5200
         4         5        27      5200
         4         5        28      5200
         4         5        29      5200
         4         5        30      5200
         4         5        31      5200
         4         5        32      5200
         4         5        33      5200
         4         5        34      5200
         4         5        35      5200
         4         5        36      5200
         4         5        37      5200
         4         5        38      5200
         4         5        39      5200
         4         5        40      5200
         4         5        41      5200
         4         5        42      5200
         4         5        43      5200
         4         5        44      5200
         4         5        45      5200
         4         5        46      5200
         4         5        47      5200
         4         5        48      5200
         4         5        49      5200
         4         5        50      5200
         4         5        51      5200
         4         5        52      5200
         4         5        53      5200
         4         5        54      5200
         4         5        55      5200
         4         5        56      5200
         4         5        57      5200
         4         5        58      5200
         4         5        59      5200
         4         5        60      5200
         4         5        61      5200
         4         5        62      5200
         4         5        63      5200
         4         5        64      5200
         4         5        65      5200
         4         5        66      5200
         4         5        67      5200
         4         5        68      5200
         4         5        69      5200
         4         5        70      5200
         4         5        71      5200
         4         5        72      5200
         4         5        73      5200
         4         5        74      5200
         4         5        75      5200
         4         5        76      5200
         4         5        77      5200
         4         5        78      5200
         4         5        79      5200
         4         5        80      5200
         4         6         1      5200
         4         6         2      5200
         4         6         3      5200
         4         6         4      5200
         4         6         5      5200
         4         6         6      5200
         4         6         7      5200
         4         6         8      5200
         4         6         9      5200
         4         6        10      5200
         4         6        11      5200
         4         6        12      5200
         4         6        13      5200
         4         6        14      5200
         4         6        15      5200
         4         6        16      5200
         4         6        17      5200
         4         6        18      5200
         4         6        19      5200
         4         6        20      5200
         4         6        21      5200
         4         6        22      5200
         4         6        23      5200
         4         6        24      5200
         4         6        25      5200
         4         6        26      5200
         4         6        27      5200
         4         6        28      5200
         4         6        29      5200
         4         6        30      5200
         4         6        31      5200
         4         6        32      5200
         4         6        33      5200
         4         6        34      5200
         4         6        35      5200
         4         6        36      5200
         4         6        37      5200
         4         6        38      5200
         4         6        39      5200
         4         6        40      5200
         4         6        41      5200
         4         6        42      5200
         4         6        43      5200
         4         6        44      5200
         4         6        45      5200
         4         6        46      5200
         4         6        47      5200
         4         6        48      5200
         4         6        49      5200
         4         6        50      5200
         4         6        51      5200
         4         6        52      5200
         4         6        53      5200
         4         6        54      5200
         4         6        55      5200
         4         6        56      5200
         4         6        57      5200
         4         6        58      5200
         4         6        59      5200
         4         6        60      5200
         4         6        61      5200
         4         6        62      5200
         4         6        63      5200
         4         6        64      5200
         4         6        65      5200
         4         6        66      5200
         4         6        67      5200
         4         6        68      5200
         4         6        69      5200
         4         6        70      5200
         4         6        71      5200
         4         6        72      5200
         4         6        73      5200
         4         6        74      5200
         4         6        75      5200
         4         6        76      5200
         4         6        77      5200
         4         6        78      5200
         4         6        79      5200
         4         6        80      5200
         4         7         1      5200
         4         7         2      5200
         4         7         3      5200
         4         7         4      5200
         4         7         5      5200
         4         7         6      5200
         4         7         7      5200
         4         7         8      5200
         4         7         9      5200
         4         7        10      5200
         4         7        11      5200
         4         7        12      5200
         4         7        13      5200
         4         7        14      5200
         4         7        15      5200
         4         7        16      5200
         4         7        17      5200
         4         7        18      5200
         4         7        19      5200
         4         7        20      5200
         4         7        21      5200
         4         7        22      5200
         4         7        23      5200
         4         7        24      5200
         4         7        25      5200
         4         7        26      5200
         4         7        27      5200
         4         7        28      5200
         4         7        29      5200
         4         7        30      5200
         4         7        31      5200
         4         7        32      5200
         4         7        33      5200
         4         7        34      5200
         4         7        35      5200
         4         7        36      5200
         4         7        37      5200
         4         7        38      5200
         4         7        39      5200
         4         7        40      5200
         4         7        41      5200
         4         7        42      5200
         4         7        43      5200
         4         7        44      5200
         4         7        45      5200
         4         7        46      5200
         4         7        47      5200
         4         7        48      5200
         4         7        49      5200
         4         7        50      5200
         4         7        51      5200
         4         7        52      5200
         4         7        53      5200
         4         7        54      5200
         4         7        55      5200
         4         7        56      5200
         4         7        57      5200
         4         7        58      5200
         4         7        59      5200
         4         7        60      5200
         4         7        61      5200
         4         7        62      5200
         4         7        63      5200
         4         7        64      5200
         4         7        65      5200
         4         7        66      5200
         4         7        67      5200
         4         7        68      5200
         4         7        69      5200
         4         7        70      5200
         4         7        71      5200
         4         7        72      5200
         4         7        73      5200
         4         7        74      5200
         4         7        75      5200
         4         7        76      5200
         4         7        77      5200
         4         7        78      5200
         4         7        79      5200
         4         7        80      5200
         4         8         1      5200
         4         8         2      5200
         4         8         3      5200
         4         8         4      5200
         4         8         5      5200
         4         8         6      5200
         4         8         7      5200
         4         8         8      5200
         4         8         9      5200
         4         8        10      5200
         4         8        11      5200
         4         8        12      5200
         4         8        13      5200
         4         8        14      5200
         4         8        15      5200
         4         8        16      5200
         4         8        17      5200
         4         8        18      5200
         4         8        19      5200
         4         8        20      5200
         4         8        21      5200
         4         8        22      5200
         4         8        23      5200
         4         8        24      5200
         4         8        25      5200
         4         8        26      5200
         4         8        27      5200
         4         8        28      5200
         4         8        29      5200
         4         8        30      5200
         4         8        31      5200
         4         8        32      5200
         4         8        33      5200
         4         8        34      5200
         4         8        35      5200
         4         8        36      5200
         4         8        37      5200
         4         8        38      5200
         4         8        39      5200
         4         8        40      5200
         4         8        41      5200
         4         8        42      5200
         4         8        43      5200
         4         8        44      5200
         4         8        45      5200
         4         8        46      5200
         4         8        47      5200
         4         8        48      5200
         4         8        49      5200
         4         8        50      5200
         4         8        51      5200
         4         8        52      5200
         4         8        53      5200
         4         8        54      5200
         4         8        55      5200
         4         8        56      5200
         4         8        57      5200
         4         8        58      5200
         4         8        59      5200
         4         8        60      5200
         4         8        61      5200
         4         8        62      5200
         4         8        63      5200
         4         8        64      5200
         4         8        65      5200
         4         8        66      5200
         4         8        67      5200
         4         8        68      5200
         4         8        69      5200
         4         8        70      5200
         4         8        71      5200
         4         8        72      5200
         4         8        73      5200
         4         8        74      5200
         4         8        75      5200
         4         8        76      5200
         4         8        77      5200
         4         8        78      5200
         4         8        79      5200
         4         8        80      5200
         4         9         1      5200
         4         9         2      5200
         4         9         3      5200
         4         9         4      5200
         4         9         5      5200
         4         9         6      5200
         4         9         7      5200
         4         9         8      5200
         4         9         9      5200
         4         9        10      5200
         4         9        11      5200
         4         9        12      5200
         4         9        13      5200
         4         9        14      5200
         4         9        15      5200
         4         9        16      5200
         4         9        17      5200
         4         9        18      5200
         4         9        19      5200
         4         9        20      5200
         4         9        21      5200
         4         9        22      5200
         4         9        23      5200
         4         9        24      5200
         4         9        25      5200
         4         9        26      5200
         4         9        27      5200
         4         9        28      5200
         4         9        29      5200
         4         9        30      5200
         4         9        31      5200
         4         9        32      5200
         4         9        33      5200
         4         9        34      5200
         4         9        35      5200
         4         9        36      5200
         4         9        37      5200
         4         9        38      5200
         4         9        39      5200
         4         9        40      5200
         4         9        41      5200
         4         9        42      5200
         4         9        43      5200
         4         9        44      5200
         4         9        45      5200
         4         9        46      5200
         4         9        47      5200
         4         9        48      5200
         4         9        49      5200
         4         9        50      5200
         4         9        51      5200
         4         9        52      5200
         4         9        53      5200
         4         9        54      5200
         4         9        55      5200
         4         9        56      5200
         4         9        57      5200
         4         9        58      5200
         4         9        59      5200
         4         9        60      5200
         4         9        61      5200
         4         9        62      5200
         4         9        63      5200
         4         9        64      5200
         4         9        65      5200
         4         9        66      5200
         4         9        67      5200
         4         9        68      5200
         4         9        69      5200
         4         9        70      5200
         4         9        71      5200
         4         9        72      5200
         4         9        73      5200
         4         9        74      5200
         4         9        75      5200
         4         9        76      5200
         4         9        77      5200
         4         9        78      5200
         4         9        79      5200
         4         9        80      5200
         4        10         1      5200
         4        10         2      5200
         4        10         3      5200
         4        10         4      5200
         4        10         5      5200
         4        10         6      5200
         4        10         7      5200
         4        10         8      5200