#option block.  Note -- no comments allowed on auxiliary line
begin options
  PRINT_INPUT
  PRINT_FLOWS
end options

begin dimensions
  MAXBOUND 6
end dimensions

begin period 1
       1   20    1    6110.0    13925.
       1   21    1    6110.0    14391.
       1   22    1    6110.0    14597.
       1   23    1    6110.0    14536.
       1   24    1    6110.0    14212.
       1   25    1    6110.0    13632.
end period
