BEGIN OPTIONS
  HEAD FILEOUT crinkle.hds
END OPTIONS

BEGIN PERIOD 1
  PRINT BUDGET ALL
  SAVE HEAD LAST
END PERIOD

BEGIN PERIOD 2
  PRINT BUDGET ALL
END PERIOD

BEGIN PERIOD 10
  PRINT BUDGET ALL
  SAVE HEAD LAST
END PERIOD