BEGIN OPTIONS
  READASARRAYS
  SAVE_FLOWS
END OPTIONS

BEGIN PERIOD 1
  RECHARGE
    OPEN/CLOSE    Array.MF-RechDIST.txt  FACTOR            0.000159         IPRN    -1    SP001
END PERIOD

BEGIN PERIOD 2
  RECHARGE
    OPEN/CLOSE    Array.MF-RechDIST.txt  FACTOR            4.6744E-03       IPRN    -1    SP002
END PERIOD

BEGIN PERIOD 3
  RECHARGE
    OPEN/CLOSE    Array.MF-RechDIST.txt  FACTOR            1.1686E-03       IPRN    -1    SP003
END PERIOD

BEGIN PERIOD 4
  RECHARGE
    OPEN/CLOSE    Array.MF-RechDIST.txt  FACTOR            2.9215E-04       IPRN    -1    SP004
END PERIOD

BEGIN PERIOD 5
  RECHARGE
    OPEN/CLOSE    Array.MF-RechDIST.txt  FACTOR            7.3037E-05       IPRN    -1    SP005
END PERIOD

BEGIN PERIOD 6
  RECHARGE
    OPEN/CLOSE    Array.MF-RechDIST.txt  FACTOR            1.8259E-05       IPRN    -1    SP006
END PERIOD

BEGIN PERIOD 7
  RECHARGE
    OPEN/CLOSE    Array.MF-RechDIST.txt  FACTOR            4.5648E-06       IPRN    -1    SP007
END PERIOD

BEGIN PERIOD 8
  RECHARGE
    OPEN/CLOSE    Array.MF-RechDIST.txt  FACTOR            1.1412E-06       IPRN    -1    SP008
END PERIOD

BEGIN PERIOD 9
  RECHARGE
    OPEN/CLOSE    Array.MF-RechDIST.txt  FACTOR            2.8530E-07       IPRN    -1    SP009
END PERIOD

BEGIN PERIOD 10
  RECHARGE
    OPEN/CLOSE    Array.MF-RechDIST.txt  FACTOR            7.1326E-08       IPRN    -1    SP010
END PERIOD

