begin options
  print_option summary
end options

begin nonlinear
	outer_dvclose 1.e-6
	outer_maximum 400
	under_relaxation dbd
	under_relaxation_theta 0.75
	under_relaxation_kappa 0.00001
	under_relaxation_gamma 0.
	under_relaxation_momentum 0.1
	backtracking_number 30	
	backtracking_tolerance 1.2
	backtracking_reduction_factor 0.7
	backtracking_residual_limit 10.0
	#linear_solver xmd
end nonlinear

begin linear
	inner_dvclose 1.0e-6
	inner_rclose 0. relative_rclose l2norm_rclose
	inner_maximum 100
	linear_acceleration bicgstab
	scaling_method none
	reordering_method none
	relaxation_factor 0.
	preconditioner_levels 5
	number_orthogonalizations 7
	preconditioner_drop_tolerance 1.e-3
end linear
