begin options
  PRINT_OPTION SUMMARY
end options

begin nonlinear
	outer_hclose 1.e-6
	outer_maximum 400
	under_relaxation dbd
	UNDER_RELAXATION_theta 0.75
	UNDER_RELAXATION_kappa 0.00001
	UNDER_RELAXATION_gamma 0.
	UNDER_RELAXATION_momentum 0.1
	BACKTRACKING_NUMBER 30	
	BACKTRACKING_TOLERANCE 1.2
	BACKTRACKING_REDUCTION_FACTOR 0.7
	BACKTRACKING_RESIDUAL_LIMIT 10.0
	#linear_solver xmd
end nonlinear

begin linear
	inner_hclose 1.0e-6
	inner_rclose 0. RELATIVE_RCLOSE L2NORM_RCLOSE
	inner_maximum 100
	LINEAR_ACCELERATION bicgstab
	scaling_method none
	REORDERING_METHOD none
	relaxation_factor 0.
	PRECONDITIONER_LEVELS 5
	NUMBER_ORTHOGONALIZATIONS 7
	PRECONDITIONER_DROP_TOLERANCE 1.e-3
end linear
