BEGIN OPTIONS
  TIME_UNITS DAYS
END OPTIONS

BEGIN DIMENSIONS
  NPER 10
END DIMENSIONS

BEGIN PERIODDATA
 #perlen nstp  tsmult
   1.00     01     1.00  STRESS PERIOD 001 
0091.313    20     1.00  STRESS PERIOD 002
0091.313    20     1.00  STRESS PERIOD 003
0091.313    20     1.00  STRESS PERIOD 004
0091.313    20     1.00  STRESS PERIOD 005
0091.313    20     1.00  STRESS PERIOD 006
0091.313    20     1.00  STRESS PERIOD 007
0091.313    20     1.00  STRESS PERIOD 008
0091.313    20     1.00  STRESS PERIOD 009
0356.119    20     1.00  STRESS PERIOD 010
END PERIODDATA
