# MODFLOW2005 Discretization File
# can run for a total of 367 stress periods
 4  40  80  10  4  2
 0 0 0 0 0 0 0 0 0 0 0 0 0 0 0 0
  CONSTANT   200.0   (10E12.4)                    0     DELTA-X or C
  CONSTANT   100.0   (10E12.4)                    0     DELTA-Y or R
  CONSTANT   7500.  (FREE)                   -1                                 TOP of Model
OPEN/CLOSE   Array.MF-Top002.txt              1.00      (FREE)    -1    TOP of Layer   2
  CONSTANT   6080.   (FREE)                      -1     TOP  of Layer   3
  CONSTANT   5201.   (FREE)                      -1     TOP  of Layer   3
  CONSTANT   5199.99 (FREE)                      -1     TOP  of Layer   3
 1.00        01   1.00      SS  STRESS PERIOD 001 
0091.313    20     1.00      TR  STRESS PERIOD 002
0091.313    20     1.00      TR  STRESS PERIOD 003
0091.313    20     1.00      TR  STRESS PERIOD 004
0091.313    20     1.00      TR  STRESS PERIOD 005
0091.313    20     1.00      TR  STRESS PERIOD 006
0091.313    20     1.00      TR  STRESS PERIOD 007
0091.313    20     1.00      TR  STRESS PERIOD 008
0091.313    20     1.00      TR  STRESS PERIOD 009
0356.119    20     1.00      TR  STRESS PERIOD 010
0356.119    20     1.00      TR  STRESS PERIOD 011
0356.119    20     1.00      TR  STRESS PERIOD 012
0356.119    20     1.00      TR  STRESS PERIOD 013
0356.119    20     1.00      TR  STRESS PERIOD 014
0356.119    20     1.00      TR  STRESS PERIOD 015
0356.119    20     1.00      TR  STRESS PERIOD 016
0356.119    20     1.00      TR  STRESS PERIOD 017
0091.313    20     1.00      TR  STRESS PERIOD 002
0091.313    20     1.00      TR  STRESS PERIOD 003
0091.313    20     1.00      TR  STRESS PERIOD 004
0091.313    20     1.00      TR  STRESS PERIOD 005
0091.313    20     1.00      TR  STRESS PERIOD 006
0091.313    20     1.00      TR  STRESS PERIOD 007
0091.313    20     1.00      TR  STRESS PERIOD 008
0091.313    20     1.00      TR  STRESS PERIOD 009
0356.119    20     1.00      TR  STRESS PERIOD 010
0356.119    20     1.00      TR  STRESS PERIOD 011
0356.119    20     1.00      TR  STRESS PERIOD 012
0356.119    20     1.00      TR  STRESS PERIOD 013
0356.119    20     1.00      TR  STRESS PERIOD 014
0356.119    20     1.00      TR  STRESS PERIOD 015
0356.119    20     1.00      TR  STRESS PERIOD 016
0356.119    20     1.00      TR  STRESS PERIOD 017
0091.313    20     1.00      TR  STRESS PERIOD 002
0091.313    20     1.00      TR  STRESS PERIOD 003
0091.313    20     1.00      TR  STRESS PERIOD 004
0091.313    20     1.00      TR  STRESS PERIOD 005
0091.313    20     1.00      TR  STRESS PERIOD 006
0091.313    20     1.00      TR  STRESS PERIOD 007
0091.313    20     1.00      TR  STRESS PERIOD 008
0091.313    20     1.00      TR  STRESS PERIOD 009
0356.119    20     1.00      TR  STRESS PERIOD 010
0356.119    20     1.00      TR  STRESS PERIOD 011
0356.119    20     1.00      TR  STRESS PERIOD 012
0356.119    20     1.00      TR  STRESS PERIOD 013
0356.119    20     1.00      TR  STRESS PERIOD 014
0356.119    20     1.00      TR  STRESS PERIOD 015
0356.119    20     1.00      TR  STRESS PERIOD 016
0356.119    20     1.00      TR  STRESS PERIOD 017
0091.313    20     1.00      TR  STRESS PERIOD 002
0091.313    20     1.00      TR  STRESS PERIOD 003
0091.313    20     1.00      TR  STRESS PERIOD 004
0091.313    20     1.00      TR  STRESS PERIOD 005
0091.313    20     1.00      TR  STRESS PERIOD 006
0091.313    20     1.00      TR  STRESS PERIOD 007
0091.313    20     1.00      TR  STRESS PERIOD 008
0091.313    20     1.00      TR  STRESS PERIOD 009
0356.119    20     1.00      TR  STRESS PERIOD 010
0356.119    20     1.00      TR  STRESS PERIOD 011
0356.119    20     1.00      TR  STRESS PERIOD 012
0356.119    20     1.00      TR  STRESS PERIOD 013
0356.119    20     1.00      TR  STRESS PERIOD 014
0356.119    20     1.00      TR  STRESS PERIOD 015
0356.119    20     1.00      TR  STRESS PERIOD 016
0356.119    20     1.00      TR  STRESS PERIOD 017
0091.313    20     1.00      TR  STRESS PERIOD 002
0091.313    20     1.00      TR  STRESS PERIOD 003
0091.313    20     1.00      TR  STRESS PERIOD 004
0091.313    20     1.00      TR  STRESS PERIOD 005
0091.313    20     1.00      TR  STRESS PERIOD 006
0091.313    20     1.00      TR  STRESS PERIOD 007
0091.313    20     1.00      TR  STRESS PERIOD 008
0091.313    20     1.00      TR  STRESS PERIOD 009
0356.119    20     1.00      TR  STRESS PERIOD 010
0356.119    20     1.00      TR  STRESS PERIOD 011
0356.119    20     1.00      TR  STRESS PERIOD 012
0356.119    20     1.00      TR  STRESS PERIOD 013
0356.119    20     1.00      TR  STRESS PERIOD 014
0356.119    20     1.00      TR  STRESS PERIOD 015
0356.119    20     1.00      TR  STRESS PERIOD 016
0356.119    20     1.00      TR  STRESS PERIOD 017
0091.313    20     1.00      TR  STRESS PERIOD 002
0091.313    20     1.00      TR  STRESS PERIOD 003
0091.313    20     1.00      TR  STRESS PERIOD 004
0091.313    20     1.00      TR  STRESS PERIOD 005
0091.313    20     1.00      TR  STRESS PERIOD 006
0091.313    20     1.00      TR  STRESS PERIOD 007
0091.313    20     1.00      TR  STRESS PERIOD 008
0091.313    20     1.00      TR  STRESS PERIOD 009
0356.119    20     1.00      TR  STRESS PERIOD 010
0356.119    20     1.00      TR  STRESS PERIOD 011
0356.119    20     1.00      TR  STRESS PERIOD 012
0356.119    20     1.00      TR  STRESS PERIOD 013
0356.119    20     1.00      TR  STRESS PERIOD 014
0356.119    20     1.00      TR  STRESS PERIOD 015
0356.119    20     1.00      TR  STRESS PERIOD 016
0356.119    20     1.00      TR  STRESS PERIOD 017
0091.313    20     1.00      TR  STRESS PERIOD 002
0091.313    20     1.00      TR  STRESS PERIOD 003
0091.313    20     1.00      TR  STRESS PERIOD 004
0091.313    20     1.00      TR  STRESS PERIOD 005
0091.313    20     1.00      TR  STRESS PERIOD 006
0091.313    20     1.00      TR  STRESS PERIOD 007
0091.313    20     1.00      TR  STRESS PERIOD 008
0091.313    20     1.00      TR  STRESS PERIOD 009
0356.119    20     1.00      TR  STRESS PERIOD 010
0356.119    20     1.00      TR  STRESS PERIOD 011
0356.119    20     1.00      TR  STRESS PERIOD 012
0356.119    20     1.00      TR  STRESS PERIOD 013
0356.119    20     1.00      TR  STRESS PERIOD 014
0356.119    20     1.00      TR  STRESS PERIOD 015
0356.119    20     1.00      TR  STRESS PERIOD 016
0356.119    20     1.00      TR  STRESS PERIOD 017
0091.313    20     1.00      TR  STRESS PERIOD 002
0091.313    20     1.00      TR  STRESS PERIOD 003
0091.313    20     1.00      TR  STRESS PERIOD 004
0091.313    20     1.00      TR  STRESS PERIOD 005
0091.313    20     1.00      TR  STRESS PERIOD 006
0091.313    20     1.00      TR  STRESS PERIOD 007
0091.313    20     1.00      TR  STRESS PERIOD 008
0091.313    20     1.00      TR  STRESS PERIOD 009
0356.119    20     1.00      TR  STRESS PERIOD 010
0356.119    20     1.00      TR  STRESS PERIOD 011
0356.119    20     1.00      TR  STRESS PERIOD 012
0356.119    20     1.00      TR  STRESS PERIOD 013
0356.119    20     1.00      TR  STRESS PERIOD 014
0356.119    20     1.00      TR  STRESS PERIOD 015
0356.119    20     1.00      TR  STRESS PERIOD 016
0356.119    20     1.00      TR  STRESS PERIOD 017
0091.313    20     1.00      TR  STRESS PERIOD 002
0091.313    20     1.00      TR  STRESS PERIOD 003
0091.313    20     1.00      TR  STRESS PERIOD 004
0091.313    20     1.00      TR  STRESS PERIOD 005
0091.313    20     1.00      TR  STRESS PERIOD 006
0091.313    20     1.00      TR  STRESS PERIOD 007
0091.313    20     1.00      TR  STRESS PERIOD 008
0091.313    20     1.00      TR  STRESS PERIOD 009
0356.119    20     1.00      TR  STRESS PERIOD 010
0356.119    20     1.00      TR  STRESS PERIOD 011
0356.119    20     1.00      TR  STRESS PERIOD 012
0356.119    20     1.00      TR  STRESS PERIOD 013
0356.119    20     1.00      TR  STRESS PERIOD 014
0356.119    20     1.00      TR  STRESS PERIOD 015
0356.119    20     1.00      TR  STRESS PERIOD 016
0356.119    20     1.00      TR  STRESS PERIOD 017
0091.313    20     1.00      TR  STRESS PERIOD 002
0091.313    20     1.00      TR  STRESS PERIOD 003
0091.313    20     1.00      TR  STRESS PERIOD 004
0091.313    20     1.00      TR  STRESS PERIOD 005
0091.313    20     1.00      TR  STRESS PERIOD 006
0091.313    20     1.00      TR  STRESS PERIOD 007
0091.313    20     1.00      TR  STRESS PERIOD 008
0091.313    20     1.00      TR  STRESS PERIOD 009
0356.119    20     1.00      TR  STRESS PERIOD 010
0356.119    20     1.00      TR  STRESS PERIOD 011
0356.119    20     1.00      TR  STRESS PERIOD 012
0356.119    20     1.00      TR  STRESS PERIOD 013
0356.119    20     1.00      TR  STRESS PERIOD 014
0356.119    20     1.00      TR  STRESS PERIOD 015
0356.119    20     1.00      TR  STRESS PERIOD 016
0356.119    20     1.00      TR  STRESS PERIOD 017
