# MODFLOW2005 Basic Package
#   
FREE
  CONSTANT         1 (FREE)                     -1     IBOUND Layer   3
  CONSTANT         1 (FREE)                     -1     IBOUND Layer   3
  CONSTANT         1 (FREE)                     -1     IBOUND Layer   4
  CONSTANT        -1 (FREE)                     -1     IBOUND Layer   5
9999.
  CONSTANT      6300. (FREE)                     -1    STARTING HEADS Layer   3
  CONSTANT      6300. (FREE)                     -1    STARTING HEADS Layer   3
  CONSTANT      6300. (FREE)                     -1    STARTING HEADS Layer   3
  CONSTANT      5200. (FREE)                     -1    STARTING HEADS Layer   5

OPEN/CLOSE    Arrays\Array.MF-IniHead01.txt      1.00      (FREE)    -1     STARTING HEADS Layer   1
OPEN/CLOSE    Arrays\Array.MF-IniHead02.txt      1.00      (FREE)    -1     STARTING HEADS Layer   2
OPEN/CLOSE    Arrays\Array.MF-IniHead03.txt      1.00      (FREE)    -1     STARTING HEADS Layer   3
