# MODFLOW2000 General Head Boundary Package
        99         0
        06         4                      Stress Period 01
       001       020       001   06110.0   013925.
       001       021       001   06110.0   014391.
       001       022       001   06110.0   014597.
       001       023       001   06110.0   014536.
       001       024       001   06110.0   014212.
       001       025       001   06110.0   013632.
-1                                                       #STRESS PERIOD 001
-1                                                       #STRESS PERIOD 002
-1                                                       #STRESS PERIOD 003
-1                                                       #STRESS PERIOD 004
-1                                                       #STRESS PERIOD 005
-1                                                       #STRESS PERIOD 006
-1                                                       #STRESS PERIOD 007
-1                                                       #STRESS PERIOD 001
-1                                                       #STRESS PERIOD 002
-1                                                       #STRESS PERIOD 003
-1                                                       #STRESS PERIOD 004
-1                                                       #STRESS PERIOD 005
-1                                                       #STRESS PERIOD 006
-1                                                       #STRESS PERIOD 007
-1                                                       #STRESS PERIOD 001
-1                                                       #STRESS PERIOD 002
-1                                                       #STRESS PERIOD 003
-1                                                       #STRESS PERIOD 004
-1                                                       #STRESS PERIOD 005
-1                                                       #STRESS PERIOD 006
-1                                                       #STRESS PERIOD 007
-1                                                       #STRESS PERIOD 001
-1                                                       #STRESS PERIOD 002
-1                                                       #STRESS PERIOD 003
-1                                                       #STRESS PERIOD 004
-1                                                       #STRESS PERIOD 005
-1                                                       #STRESS PERIOD 006
-1                                                       #STRESS PERIOD 007
-1                                                       #STRESS PERIOD 001
-1                                                       #STRESS PERIOD 002
-1                                                       #STRESS PERIOD 003
-1                                                       #STRESS PERIOD 004
-1                                                       #STRESS PERIOD 005
-1                                                       #STRESS PERIOD 006
-1                                                       #STRESS PERIOD 007
-1                                                       #STRESS PERIOD 001
-1                                                       #STRESS PERIOD 002
-1                                                       #STRESS PERIOD 003
-1                                                       #STRESS PERIOD 004
-1                                                       #STRESS PERIOD 005
-1                                                       #STRESS PERIOD 006
-1                                                       #STRESS PERIOD 007
-1                                                       #STRESS PERIOD 001
-1                                                       #STRESS PERIOD 002
-1                                                       #STRESS PERIOD 003
-1                                                       #STRESS PERIOD 004
-1                                                       #STRESS PERIOD 005
-1                                                       #STRESS PERIOD 006
-1                                                       #STRESS PERIOD 007
-1                                                       #STRESS PERIOD 001
-1                                                       #STRESS PERIOD 002
-1                                                       #STRESS PERIOD 003
-1                                                       #STRESS PERIOD 004
-1                                                       #STRESS PERIOD 005
-1                                                       #STRESS PERIOD 006
-1                                                       #STRESS PERIOD 007
-1                                                       #STRESS PERIOD 001
-1                                                       #STRESS PERIOD 002
-1                                                       #STRESS PERIOD 003
-1                                                       #STRESS PERIOD 004
-1                                                       #STRESS PERIOD 005
-1                                                       #STRESS PERIOD 006
-1                                                       #STRESS PERIOD 007
-1                                                       #STRESS PERIOD 001
-1                                                       #STRESS PERIOD 002
-1                                                       #STRESS PERIOD 003
-1                                                       #STRESS PERIOD 004
-1                                                       #STRESS PERIOD 005
-1                                                       #STRESS PERIOD 006
-1                                                       #STRESS PERIOD 007
-1                                                       #STRESS PERIOD 001
-1                                                       #STRESS PERIOD 002
-1                                                       #STRESS PERIOD 003
-1                                                       #STRESS PERIOD 004
-1                                                       #STRESS PERIOD 005
-1                                                       #STRESS PERIOD 006
-1                                                       #STRESS PERIOD 007
-1                                                       #STRESS PERIOD 001
-1                                                       #STRESS PERIOD 002
-1                                                       #STRESS PERIOD 003
-1                                                       #STRESS PERIOD 004
-1                                                       #STRESS PERIOD 005
-1                                                       #STRESS PERIOD 006
-1                                                       #STRESS PERIOD 007
-1                                                       #STRESS PERIOD 001
-1                                                       #STRESS PERIOD 002
-1                                                       #STRESS PERIOD 003
-1                                                       #STRESS PERIOD 004
-1                                                       #STRESS PERIOD 005
-1                                                       #STRESS PERIOD 006
-1                                                       #STRESS PERIOD 007
-1                                                       #STRESS PERIOD 001
-1                                                       #STRESS PERIOD 002
-1                                                       #STRESS PERIOD 003
-1                                                       #STRESS PERIOD 004
-1                                                       #STRESS PERIOD 005
-1                                                       #STRESS PERIOD 006
-1                                                       #STRESS PERIOD 007
-1                                                       #STRESS PERIOD 001
-1                                                       #STRESS PERIOD 002
-1                                                       #STRESS PERIOD 003
-1                                                       #STRESS PERIOD 004
-1                                                       #STRESS PERIOD 005
-1                                                       #STRESS PERIOD 006
-1                                                       #STRESS PERIOD 007
-1                                                       #STRESS PERIOD 001
-1                                                       #STRESS PERIOD 002
-1                                                       #STRESS PERIOD 003
-1                                                       #STRESS PERIOD 004
-1                                                       #STRESS PERIOD 005
-1                                                       #STRESS PERIOD 006
-1                                                       #STRESS PERIOD 007
-1                                                       #STRESS PERIOD 001
-1                                                       #STRESS PERIOD 002
-1                                                       #STRESS PERIOD 003
-1                                                       #STRESS PERIOD 004
-1                                                       #STRESS PERIOD 005
-1                                                       #STRESS PERIOD 006
-1                                                       #STRESS PERIOD 007
-1                                                       #STRESS PERIOD 001
-1                                                       #STRESS PERIOD 002
-1                                                       #STRESS PERIOD 003
-1                                                       #STRESS PERIOD 004
-1                                                       #STRESS PERIOD 005
-1                                                       #STRESS PERIOD 006
-1                                                       #STRESS PERIOD 007
-1                                                       #STRESS PERIOD 001
-1                                                       #STRESS PERIOD 002
-1                                                       #STRESS PERIOD 003
-1                                                       #STRESS PERIOD 004
-1                                                       #STRESS PERIOD 005
-1                                                       #STRESS PERIOD 006
-1                                                       #STRESS PERIOD 007
-1                                                       #STRESS PERIOD 001
-1                                                       #STRESS PERIOD 002
-1                                                       #STRESS PERIOD 003
-1                                                       #STRESS PERIOD 004
-1                                                       #STRESS PERIOD 005
-1                                                       #STRESS PERIOD 006
-1                                                       #STRESS PERIOD 007
-1                                                       #STRESS PERIOD 001
-1                                                       #STRESS PERIOD 002
-1                                                       #STRESS PERIOD 003
-1                                                       #STRESS PERIOD 004
-1                                                       #STRESS PERIOD 005
-1                                                       #STRESS PERIOD 006
-1                                                       #STRESS PERIOD 007
-1                                                       #STRESS PERIOD 001
-1                                                       #STRESS PERIOD 002
-1                                                       #STRESS PERIOD 003
-1                                                       #STRESS PERIOD 004
-1                                                       #STRESS PERIOD 005
-1                                                       #STRESS PERIOD 006
-1                                                       #STRESS PERIOD 007
-1                                                       #STRESS PERIOD 001
-1                                                       #STRESS PERIOD 002
-1                                                       #STRESS PERIOD 003
-1                                                       #STRESS PERIOD 004
-1                                                       #STRESS PERIOD 005
-1                                                       #STRESS PERIOD 006
-1                                                       #STRESS PERIOD 007
-1                                                       #STRESS PERIOD 001
-1                                                       #STRESS PERIOD 002
-1                                                       #STRESS PERIOD 003
-1                                                       #STRESS PERIOD 004
-1                                                       #STRESS PERIOD 005
-1                                                       #STRESS PERIOD 006
-1                                                       #STRESS PERIOD 007
-1                                                       #STRESS PERIOD 001
-1                                                       #STRESS PERIOD 002
-1                                                       #STRESS PERIOD 003
-1                                                       #STRESS PERIOD 004
-1                                                       #STRESS PERIOD 005
-1                                                       #STRESS PERIOD 006
-1                                                       #STRESS PERIOD 007
-1                                                       #STRESS PERIOD 001
-1                                                       #STRESS PERIOD 002
-1                                                       #STRESS PERIOD 003
-1                                                       #STRESS PERIOD 004
-1                                                       #STRESS PERIOD 005
-1                                                       #STRESS PERIOD 006
-1                                                       #STRESS PERIOD 007
-1                                                       #STRESS PERIOD 001
-1                                                       #STRESS PERIOD 002
-1                                                       #STRESS PERIOD 003
-1                                                       #STRESS PERIOD 004
-1                                                       #STRESS PERIOD 005
-1                                                       #STRESS PERIOD 006
-1                                                       #STRESS PERIOD 007
-1                                                       #STRESS PERIOD 001
-1                                                       #STRESS PERIOD 002
-1                                                       #STRESS PERIOD 003
-1                                                       #STRESS PERIOD 004
-1                                                       #STRESS PERIOD 005
-1                                                       #STRESS PERIOD 006
-1                                                       #STRESS PERIOD 007
-1                                                       #STRESS PERIOD 001
-1                                                       #STRESS PERIOD 002
-1                                                       #STRESS PERIOD 003
-1                                                       #STRESS PERIOD 004
-1                                                       #STRESS PERIOD 005
-1                                                       #STRESS PERIOD 006
-1                                                       #STRESS PERIOD 007
-1                                                       #STRESS PERIOD 001
-1                                                       #STRESS PERIOD 002
-1                                                       #STRESS PERIOD 003
-1                                                       #STRESS PERIOD 004
-1                                                       #STRESS PERIOD 005
-1                                                       #STRESS PERIOD 006
-1                                                       #STRESS PERIOD 007
-1                                                       #STRESS PERIOD 001
-1                                                       #STRESS PERIOD 002
-1                                                       #STRESS PERIOD 003
-1                                                       #STRESS PERIOD 004
-1                                                       #STRESS PERIOD 005
-1                                                       #STRESS PERIOD 006
-1                                                       #STRESS PERIOD 007
-1                                                       #STRESS PERIOD 001
-1                                                       #STRESS PERIOD 002
-1                                                       #STRESS PERIOD 003
-1                                                       #STRESS PERIOD 004
-1                                                       #STRESS PERIOD 005
-1                                                       #STRESS PERIOD 006
-1                                                       #STRESS PERIOD 007
-1                                                       #STRESS PERIOD 001
-1                                                       #STRESS PERIOD 002
-1                                                       #STRESS PERIOD 003
-1                                                       #STRESS PERIOD 004
-1                                                       #STRESS PERIOD 005
-1                                                       #STRESS PERIOD 006
-1                                                       #STRESS PERIOD 007
-1                                                       #STRESS PERIOD 001
-1                                                       #STRESS PERIOD 002
-1                                                       #STRESS PERIOD 003
-1                                                       #STRESS PERIOD 004
-1                                                       #STRESS PERIOD 005
-1                                                       #STRESS PERIOD 006
-1                                                       #STRESS PERIOD 007
-1                                                       #STRESS PERIOD 001
-1                                                       #STRESS PERIOD 002
-1                                                       #STRESS PERIOD 003
-1                                                       #STRESS PERIOD 004
-1                                                       #STRESS PERIOD 005
-1                                                       #STRESS PERIOD 006
-1                                                       #STRESS PERIOD 007
-1                                                       #STRESS PERIOD 001
-1                                                       #STRESS PERIOD 002
-1                                                       #STRESS PERIOD 003
-1                                                       #STRESS PERIOD 004
-1                                                       #STRESS PERIOD 005
-1                                                       #STRESS PERIOD 006
-1                                                       #STRESS PERIOD 007
-1                                                       #STRESS PERIOD 001
-1                                                       #STRESS PERIOD 002
-1                                                       #STRESS PERIOD 003
-1                                                       #STRESS PERIOD 004
-1                                                       #STRESS PERIOD 005
-1                                                       #STRESS PERIOD 006
-1                                                       #STRESS PERIOD 007
-1                                                       #STRESS PERIOD 001
-1                                                       #STRESS PERIOD 002
-1                                                       #STRESS PERIOD 003
-1                                                       #STRESS PERIOD 004
-1                                                       #STRESS PERIOD 005
-1                                                       #STRESS PERIOD 006
-1                                                       #STRESS PERIOD 007
-1                                                       #STRESS PERIOD 001
-1                                                       #STRESS PERIOD 002
-1                                                       #STRESS PERIOD 003
-1                                                       #STRESS PERIOD 004
-1                                                       #STRESS PERIOD 005
-1                                                       #STRESS PERIOD 006
-1                                                       #STRESS PERIOD 007
-1                                                       #STRESS PERIOD 001
-1                                                       #STRESS PERIOD 002
-1                                                       #STRESS PERIOD 003
-1                                                       #STRESS PERIOD 004
-1                                                       #STRESS PERIOD 005
-1                                                       #STRESS PERIOD 006
-1                                                       #STRESS PERIOD 007
-1                                                       #STRESS PERIOD 001
-1                                                       #STRESS PERIOD 002
-1                                                       #STRESS PERIOD 003
-1                                                       #STRESS PERIOD 004
-1                                                       #STRESS PERIOD 005
-1                                                       #STRESS PERIOD 006
-1                                                       #STRESS PERIOD 007
-1                                                       #STRESS PERIOD 001
-1                                                       #STRESS PERIOD 002
-1                                                       #STRESS PERIOD 003
-1                                                       #STRESS PERIOD 004
-1                                                       #STRESS PERIOD 005
-1                                                       #STRESS PERIOD 006
-1                                                       #STRESS PERIOD 007
-1                                                       #STRESS PERIOD 001
-1                                                       #STRESS PERIOD 002
-1                                                       #STRESS PERIOD 003
-1                                                       #STRESS PERIOD 004
-1                                                       #STRESS PERIOD 005
-1                                                       #STRESS PERIOD 006
-1                                                       #STRESS PERIOD 007
-1                                                       #STRESS PERIOD 001
-1                                                       #STRESS PERIOD 002
-1                                                       #STRESS PERIOD 003
-1                                                       #STRESS PERIOD 004
-1                                                       #STRESS PERIOD 005
-1                                                       #STRESS PERIOD 006
-1                                                       #STRESS PERIOD 007
-1                                                       #STRESS PERIOD 001
-1                                                       #STRESS PERIOD 002
-1                                                       #STRESS PERIOD 003
-1                                                       #STRESS PERIOD 004
-1                                                       #STRESS PERIOD 005
-1                                                       #STRESS PERIOD 006
-1                                                       #STRESS PERIOD 007
-1                                                       #STRESS PERIOD 001
-1                                                       #STRESS PERIOD 002
-1                                                       #STRESS PERIOD 003
-1                                                       #STRESS PERIOD 004
-1                                                       #STRESS PERIOD 005
-1                                                       #STRESS PERIOD 006
-1                                                       #STRESS PERIOD 007
-1                                                       #STRESS PERIOD 001
-1                                                       #STRESS PERIOD 002
-1                                                       #STRESS PERIOD 003
-1                                                       #STRESS PERIOD 004
-1                                                       #STRESS PERIOD 005
-1                                                       #STRESS PERIOD 006
-1                                                       #STRESS PERIOD 007
-1                                                       #STRESS PERIOD 001
-1                                                       #STRESS PERIOD 002
-1                                                       #STRESS PERIOD 003
-1                                                       #STRESS PERIOD 004
-1                                                       #STRESS PERIOD 005
-1                                                       #STRESS PERIOD 006
-1                                                       #STRESS PERIOD 007
-1                                                       #STRESS PERIOD 001
-1                                                       #STRESS PERIOD 002
-1                                                       #STRESS PERIOD 003
-1                                                       #STRESS PERIOD 004
-1                                                       #STRESS PERIOD 005
-1                                                       #STRESS PERIOD 006
-1                                                       #STRESS PERIOD 007
-1                                                       #STRESS PERIOD 001
-1                                                       #STRESS PERIOD 002
-1                                                       #STRESS PERIOD 003
-1                                                       #STRESS PERIOD 004
-1                                                       #STRESS PERIOD 005
-1                                                       #STRESS PERIOD 006
-1                                                       #STRESS PERIOD 007
-1                                                       #STRESS PERIOD 001
-1                                                       #STRESS PERIOD 002
-1                                                       #STRESS PERIOD 003
-1                                                       #STRESS PERIOD 004
-1                                                       #STRESS PERIOD 005
-1                                                       #STRESS PERIOD 006
-1                                                       #STRESS PERIOD 007
-1                                                       #STRESS PERIOD 001
-1                                                       #STRESS PERIOD 002
-1                                                       #STRESS PERIOD 003
-1                                                       #STRESS PERIOD 004
-1                                                       #STRESS PERIOD 005
-1                                                       #STRESS PERIOD 006
-1                                                       #STRESS PERIOD 007
-1                                                       #STRESS PERIOD 001
-1                                                       #STRESS PERIOD 002
-1                                                       #STRESS PERIOD 003
-1                                                       #STRESS PERIOD 004
-1                                                       #STRESS PERIOD 005
-1                                                       #STRESS PERIOD 006
-1                                                       #STRESS PERIOD 007
-1                                                       #STRESS PERIOD 001
-1                                                       #STRESS PERIOD 002
-1                                                       #STRESS PERIOD 003
-1                                                       #STRESS PERIOD 004
-1                                                       #STRESS PERIOD 005
-1                                                       #STRESS PERIOD 006
-1                                                       #STRESS PERIOD 007
-1                                                       #STRESS PERIOD 001
-1                                                       #STRESS PERIOD 002
-1                                                       #STRESS PERIOD 003
-1                                                       #STRESS PERIOD 004
-1                                                       #STRESS PERIOD 005