# SMS for MODFLOW-USG, generated by Flopy.
1e-6 1e-6 500 200 2 1 1
0.9 0.0001 0.0 0.1 20 2. 0.6 1.
2 0 3 7 0 0.0001 0 0.0001



# NWT for MODFLOW-NWT, generated by Flopy.
   1.0e-03   1.0e+00       500   1.0e-05         2         1         1 SPECIFIED CONTINUE        0.9    0.0001         0       0.1         1 20 2. 0.6
         2         0         3         7         0         0         1    0.    0.0001       200
