# SMS8 input file, prepared by mf5to15 on 4/10/2015 at 9:04:54.

BEGIN Options
  PRINT_OPTION SUMMARY
  COMPLEXITY  SIMPLE
END Options

BEGIN Nonlinear
  OUTER_HCLOSE   1.0E-04
  OUTER_MAXIMUM  20
  UNDER_RELAXATION  NONE
END Nonlinear

BEGIN LINEAR
  INNER_MAXIMUM  30
  INNER_HCLOSE   1.E-07
  INNER_RCLOSE   0.001
  LINEAR_ACCELERATION  CG
  RELAXATION_FACTOR 0.97
END LINEAR

