BEGIN Options
  PRINT_FLOWS
END Options

BEGIN Dimensions
  MAXBOUND 1
END Dimensions

BEGIN Period 1
3 26 26 -1
END Period
