BEGIN Options
END Options

BEGIN PACKAGES
  DIS6          model.dis
  IC6           model.ic
  NPF6          model.npf
  CHD6          model.chd
  WEL6          model.wel
  OC6           model.oc
END PACKAGES

