# CHD8 input file, prepared by mf5to15 on 4/10/2015 at 9:04:54.

BEGIN Options
  PRINT_FLOWS
END Options

BEGIN Dimensions
  MAXBOUND  200
END Dimensions

BEGIN Period 1
1 1 1 0.0
1 1 2 0.0
1 1 3 0.0
1 1 4 0.0
1 1 5 0.0
1 1 6 0.0
1 1 7 0.0
1 1 8 0.0
1 1 9 0.0
1 1 10 0.0
1 1 11 0.0
1 1 12 0.0
1 1 13 0.0
1 1 14 0.0
1 1 15 0.0
1 1 16 0.0
1 1 17 0.0
1 1 18 0.0
1 1 19 0.0
1 1 20 0.0
1 1 21 0.0
1 1 22 0.0
1 1 23 0.0
1 1 24 0.0
1 1 25 0.0
1 1 26 0.0
1 1 27 0.0
1 1 28 0.0
1 1 29 0.0
1 1 30 0.0
1 1 31 0.0
1 1 32 0.0
1 1 33 0.0
1 1 34 0.0
1 1 35 0.0
1 1 36 0.0
1 1 37 0.0
1 1 38 0.0
1 1 39 0.0
1 1 40 0.0
1 1 41 0.0
1 1 42 0.0
1 1 43 0.0
1 1 44 0.0
1 1 45 0.0
1 1 46 0.0
1 1 47 0.0
1 1 48 0.0
1 1 49 0.0
1 1 50 0.0
1 1 51 0.0
1 2 1 0.0 
1 2 51 0.0 
1 3 1 0.0 
1 3 51 0.0 
1 4 1 0.0 
1 4 51 0.0 
1 5 1 0.0 
1 5 51 0.0 
1 6 1 0.0 
1 6 51 0.0 
1 7 1 0.0 
1 7 51 0.0
1 8 1 0.0 
1 8 51 0.0
1 9 1 0.0 
1 9 51 0.0
1 10 1 0.0
1 10 51 0.0
1 11 1 0.0 
1 11 51 0.0
1 12 1 0.0 
1 12 51 0.0
1 13 1 0.0 
1 13 51 0.0
1 14 1 0.0 
1 14 51 0.0
1 15 1 0.0 
1 15 51 0.0
1 16 1 0.0 
1 16 51 0.0
1 17 1 0.0 
1 17 51 0.0
1 18 1 0.0 
1 18 51 0.0
1 19 1 0.0 
1 19 51 0.0
1 20 1 0.0 
1 20 51 0.0
1 21 1 0.0 
1 21 51 0.0
1 22 1 0.0 
1 22 51 0.0
1 23 1 0.0 
1 23 51 0.0
1 24 1 0.0 
1 24 51 0.0
1 25 1 0.0 
1 25 51 0.0
1 26 1 0.0 
1 26 51 0.0
1 27 1 0.0 
1 27 51 0.0
1 28 1 0.0 
1 28 51 0.0
1 29 1 0.0 
1 29 51 0.0
1 30 1 0.0 
1 30 51 0.0
1 31 1 0.0 
1 31 51 0.0
1 32 1 0.0 
1 32 51 0.0
1 33 1 0.0 
1 33 51 0.0
1 34 1 0.0 
1 34 51 0.0
1 35 1 0.0 
1 35 51 0.0
1 36 1 0.0 
1 36 51 0.0
1 37 1 0.0 
1 37 51 0.0
1 38 1 0.0 
1 38 51 0.0
1 39 1 0.0 
1 39 51 0.0
1 40 1 0.0 
1 40 51 0.0
1 41 1 0.0 
1 41 51 0.0
1 42 1 0.0 
1 42 51 0.0
1 43 1 0.0 
1 43 51 0.0
1 44 1 0.0 
1 44 51 0.0
1 45 1 0.0 
1 45 51 0.0
1 46 1 0.0 
1 46 51 0.0
1 47 1 0.0 
1 47 51 0.0
1 48 1 0.0 
1 48 51 0.0
1 49 1 0.0 
1 49 51 0.0
1 50 1 0.0 
1 50 51 0.0
1 51 1 0.0 
1 51 2 0.0 
1 51 3 0.0 
1 51 4 0.0 
1 51 5 0.0 
1 51 6 0.0 
1 51 7 0.0 
1 51 8 0.0 
1 51 9 0.0 
1 51 10 0.0
1 51 11 0.0
1 51 12 0.0
1 51 13 0.0
1 51 14 0.0
1 51 15 0.0
1 51 16 0.0
1 51 17 0.0
1 51 18 0.0
1 51 19 0.0
1 51 20 0.0
1 51 21 0.0
1 51 22 0.0
1 51 23 0.0
1 51 24 0.0
1 51 25 0.0
1 51 26 0.0
1 51 27 0.0
1 51 28 0.0
1 51 29 0.0
1 51 30 0.0
1 51 31 0.0
1 51 32 0.0
1 51 33 0.0
1 51 34 0.0
1 51 35 0.0
1 51 36 0.0
1 51 37 0.0
1 51 38 0.0
1 51 39 0.0
1 51 40 0.0
1 51 41 0.0
1 51 42 0.0
1 51 43 0.0
1 51 44 0.0
1 51 45 0.0
1 51 46 0.0
1 51 47 0.0
1 51 48 0.0
1 51 49 0.0
1 51 50 0.0
1 51 51 0.0
END Period
