
BEGIN OPTIONS
  HEAD FILEOUT model.output.hds
  BUDGET FILEOUT model.output.cbc
END OPTIONS

BEGIN PERIOD 1
  PRINT HEAD ALL
  SAVE HEAD ALL
  PRINT BUDGET ALL
  SAVE BUDGET ALL
END PERIOD
