# sms8 input file, prepared by mf5to15 on 4/10/2015 at 9:04:54.

begin options
  print_option summary
  complexity  simple
end options

begin nonlinear
  outer_dvclose   1.0e-04
  outer_maximum  20
  under_relaxation  none
end nonlinear

begin linear
  inner_maximum  30
  inner_dvclose   1.e-07
  inner_rclose   0.001
  linear_acceleration  cg
  relaxation_factor 0.97
end linear

