BEGIN OPTIONS
  READASARRAYS
  SAVE_FLOWS
END OPTIONS

BEGIN PERIOD 1
  RECHARGE
    OPEN/CLOSE TM9_global_gv.rch.rech.ref FACTOR  1.0  IPRN -1
END PERIOD


# MODFLOW2000 Recharge Package
PARAMETER  0
         3        50
         1         1
        18     1.000IPRN                   1     RECHARGE
  1.1098e-09  1.1098e-09  1.1098e-09  1.1098e-09  1.1098e-09  1.1098e-09  1.1098e-09  1.1098e-09  1.1098e-09  1.1098e-09
  1.1098e-09  1.1098e-09  1.1098e-09  1.1098e-09  1.1098e-09  1.1098e-09  1.1098e-09  1.1098e-09  1.1098e-09  1.1098e-09
  1.1098e-09  1.1098e-09  1.1098e-09  1.1098e-09  1.1098e-09  1.1098e-09  1.1098e-09  1.1098e-09  1.1098e-09  1.1098e-09
  1.1098e-09  1.1098e-09  1.1098e-09  1.1098e-09  1.1098e-09  1.1098e-09  1.1098e-09  1.1098e-09  1.1098e-09  1.1098e-09
  1.1098e-09  1.1098e-09  1.1098e-09  1.1098e-09  1.1098e-09  1.1098e-09  1.1098e-09  1.1098e-09  1.1098e-09  1.1098e-09
  1.1098e-09  1.1098e-09  1.1098e-09  1.1098e-09  1.1098e-09  1.1098e-09  1.1098e-09  1.1098e-09  1.1098e-09  1.1098e-09
  1.1098e-09  1.1098e-09  1.1098e-09  1.1098e-09  1.1098e-09  1.1098e-09  1.1098e-09  1.1098e-09  1.1098e-09  1.1098e-09
  1.1098e-09  1.1098e-09  1.1098e-09  1.1098e-09  1.1098e-09  1.1098e-09  1.1098e-09  1.1098e-09  1.1098e-09  1.1098e-09
  1.1098e-09  1.1098e-09  1.1098e-09  1.1098e-09  1.1098e-09  1.1098e-09  1.1098e-09  1.1098e-09  1.1098e-09  1.1098e-09
  1.1098e-09  1.1098e-09  1.1098e-09  1.1098e-09  1.1098e-09  1.1098e-09  1.1098e-09  1.1098e-09  1.1098e-09  1.1098e-09
  1.1098e-09  1.1098e-09  1.1098e-09  1.1098e-09  1.1098e-09  1.1098e-09  1.1098e-09  1.1098e-09  1.1098e-09  1.1098e-09
  1.1098e-09  1.1098e-09  1.1098e-09  1.1098e-09  1.1098e-09  1.1098e-09  1.1098e-09  1.1098e-09  1.1098e-09  1.1098e-09
  1.1098e-09  1.1098e-09  1.1098e-09  1.1098e-09  1.1098e-09  1.1098e-09  1.1098e-09  1.1098e-09  1.1098e-09  1.1098e-09
  1.1098e-09  1.1098e-09  1.1098e-09  1.1098e-09  1.1098e-09  1.1098e-09  1.1098e-09  1.1098e-09  1.1098e-09  1.1098e-09
  1.1098e-09  1.1098e-09  1.1098e-09  1.1098e-09  1.1098e-09  1.1098e-09  1.1098e-09
  1.1098e-09  1.1098e-09  1.1098e-09  1.1098e-09  1.1098e-09  1.1098e-09  1.1098e-09  1.1098e-09  1.1098e-09  1.1098e-09
  1.1098e-09  1.1098e-09  1.1098e-09  1.1098e-09  1.1098e-09  1.1098e-09  1.1098e-09  1.1098e-09  1.1098e-09  1.1098e-09
  1.1098e-09  1.1098e-09  1.1098e-09  1.1098e-09  1.1098e-09  1.1098e-09  1.1098e-09  1.1098e-09  1.1098e-09  1.1098e-09
  1.1098e-09  1.1098e-09  1.1098e-09  1.1098e-09  1.1098e-09  1.1098e-09  1.1098e-09  1.1098e-09  1.1098e-09  1.1098e-09
  1.1098e-09  1.1098e-09  1.1098e-09  1.1098e-09  1.1098e-09  1.1098e-09  1.1098e-09  1.1098e-09  1.1098e-09  1.1098e-09
  1.1098e-09  1.1098e-09  1.1098e-09  1.1098e-09  1.1098e-09  1.1098e-09  1.1098e-09  1.1098e-09  1.1098e-09  1.1098e-09
  1.1098e-09  1.1098e-09  1.1098e-09  1.1098e-09  1.1098e-09  1.1098e-09  1.1098e-09  1.1098e-09  1.1098e-09  1.1098e-09
  1.1098e-09  1.1098e-09  1.1098e-09  1.1098e-09  1.1098e-09  1.1098e-09  1.1098e-09  1.1098e-09  1.1098e-09  1.1098e-09
  1.1098e-09  1.1098e-09  1.1098e-09  1.1098e-09  1.1098e-09  1.1098e-09  1.1098e-09  1.1098e-09  1.1098e-09  1.1098e-09
  1.1098e-09  1.1098e-09  1.1098e-09  1.1098e-09  1.1098e-09  1.1098e-09  1.1098e-09  1.1098e-09  1.1098e-09  1.1098e-09
  1.1098e-09  1.1098e-09  1.1098e-09  1.1098e-09  1.1098e-09  1.1098e-09  1.1098e-09  1.1098e-09  1.1098e-09  1.1098e-09
  1.1098e-09  1.1098e-09  1.1098e-09  1.1098e-09  1.1098e-09  1.1098e-09  1.1098e-09  1.1098e-09  1.1098e-09  1.1098e-09
  1.1098e-09  1.1098e-09  1.1098e-09  1.1098e-09  1.1098e-09  1.1098e-09  1.1098e-09  1.1098e-09  1.1098e-09  1.1098e-09
  1.1098e-09  1.1098e-09  1.1098e-09  1.1098e-09  1.1098e-09  1.1098e-09  1.1098e-09  1.1098e-09  1.1098e-09  1.1098e-09
  1.1098e-09  1.1098e-09  1.1098e-09  1.1098e-09  1.1098e-09  1.1098e-09  1.1098e-09
  1.1098e-09  1.1098e-09  1.1098e-09  1.1098e-09  1.1098e-09  1.1098e-09  1.1098e-09  1.1098e-09  1.1098e-09  1.1098e-09
  1.1098e-09  1.1098e-09  1.1098e-09  1.1098e-09  1.1098e-09  1.1098e-09  1.1098e-09  1.1098e-09  1.1098e-09  1.1098e-09
  1.1098e-09  1.1098e-09  1.1098e-09  1.1098e-09  1.1098e-09  1.1098e-09  1.1098e-09  1.1098e-09  1.1098e-09  1.1098e-09
  1.1098e-09  1.1098e-09  1.1098e-09  1.1098e-09  1.1098e-09  1.1098e-09  1.1098e-09  1.1098e-09  1.1098e-09  1.1098e-09
  1.1098e-09  1.1098e-09  1.1098e-09  1.1098e-09  1.1098e-09  1.1098e-09  1.1098e-09  1.1098e-09  1.1098e-09  1.1098e-09
  1.1098e-09  1.1098e-09  1.1098e-09  1.1098e-09  1.1098e-09  1.1098e-09  1.1098e-09  1.1098e-09  1.1098e-09  1.1098e-09
  1.1098e-09  1.1098e-09  1.1098e-09  1.1098e-09  1.1098e-09  1.1098e-09  1.1098e-09  1.1098e-09  1.1098e-09  1.1098e-09
  1.1098e-09  1.1098e-09  1.1098e-09  1.1098e-09  1.1098e-09  1.1098e-09  1.1098e-09  1.1098e-09  1.1098e-09  1.1098e-09
  1.1098e-09  1.1098e-09  1.1098e-09  1.1098e-09  1.1098e-09  1.1098e-09  1.1098e-09  1.1098e-09  1.1098e-09  1.1098e-09
  1.1098e-09  1.1098e-09  1.1098e-09  1.1098e-09  1.1098e-09  1.1098e-09  1.1098e-09  1.1098e-09  1.1098e-09  1.1098e-09
  1.1098e-09  1.1098e-09  1.1098e-09  1.1098e-09  1.1098e-09  1.1098e-09  1.1098e-09  1.1098e-09  1.1098e-09  1.1098e-09
  1.1098e-09  1.1098e-09  1.1098e-09  1.1098e-09  1.1098e-09  1.1098e-09  1.1098e-09  1.1098e-09  1.1098e-09  1.1098e-09
  1.1098e-09  1.1098e-09  1.1098e-09  1.1098e-09  1.1098e-09  1.1098e-09  1.1098e-09  1.1098e-09  1.1098e-09  1.1098e-09
  1.1098e-09  1.1098e-09  1.1098e-09  1.1098e-09  1.1098e-09  1.1098e-09  1.1098e-09  1.1098e-09  1.1098e-09  1.1098e-09
  1.1098e-09  1.1098e-09  1.1098e-09  1.1098e-09  1.1098e-09  1.1098e-09  1.1098e-09
  1.1098e-09  1.1098e-09  1.1098e-09  1.1098e-09  1.1098e-09  1.1098e-09  1.1098e-09  1.1098e-09  1.1098e-09  1.1098e-09
  1.1098e-09  1.1098e-09  1.1098e-09  1.1098e-09  1.1098e-09  1.1098e-09  1.1098e-09  1.1098e-09  1.1098e-09  1.1098e-09
  1.1098e-09  1.1098e-09  1.1098e-09  1.1098e-09  1.1098e-09  1.1098e-09  1.1098e-09  1.1098e-09  1.1098e-09  1.1098e-09
  1.1098e-09  1.1098e-09  1.1098e-09  1.1098e-09  1.1098e-09  1.1098e-09  1.1098e-09  1.1098e-09  1.1098e-09  1.1098e-09
  1.1098e-09  1.1098e-09  1.1098e-09  1.1098e-09  1.1098e-09  1.1098e-09  1.1098e-09  1.1098e-09  1.1098e-09  1.1098e-09
  1.1098e-09  1.1098e-09  1.1098e-09  1.1098e-09  1.1098e-09  1.1098e-09  1.1098e-09  1.1098e-09  1.1098e-09  1.1098e-09
  1.1098e-09  1.1098e-09  1.1098e-09  1.1098e-09  1.1098e-09  1.1098e-09  1.1098e-09  1.1098e-09  1.1098e-09  1.1098e-09
  1.1098e-09  1.1098e-09  1.1098e-09  1.1098e-09  1.1098e-09  1.1098e-09  1.1098e-09  1.1098e-09  1.1098e-09  1.1098e-09
  1.1098e-09  1.1098e-09  1.1098e-09  1.1098e-09  1.1098e-09  1.1098e-09  1.1098e-09  1.1098e-09  1.1098e-09  1.1098e-09
  1.1098e-09  1.1098e-09  1.1098e-09  1.1098e-09  1.1098e-09  1.1098e-09  1.1098e-09  1.1098e-09  1.1098e-09  1.1098e-09
  1.1098e-09  1.1098e-09  1.1098e-09  1.1098e-09  1.1098e-09  1.1098e-09  1.1098e-09  1.1098e-09  1.1098e-09  1.1098e-09
  1.1098e-09  1.1098e-09  1.1098e-09  1.1098e-09  1.1098e-09  1.1098e-09  1.1098e-09  1.1098e-09  1.1098e-09  1.1098e-09
  1.1098e-09  1.1098e-09  1.1098e-09  1.1098e-09  1.1098e-09  1.1098e-09  1.1098e-09  1.1098e-09  1.1098e-09  1.1098e-09
  1.1098e-09  1.1098e-09  1.1098e-09  1.1098e-09  1.1098e-09  1.1098e-09  1.1098e-09  1.1098e-09  1.1098e-09  1.1098e-09
  1.1098e-09  1.1098e-09  1.1098e-09  1.1098e-09  1.1098e-09  1.1098e-09  1.1098e-09
  1.1098e-09  1.1098e-09  1.1098e-09  1.1098e-09  1.1098e-09  1.1098e-09  1.1098e-09  1.1098e-09  1.1098e-09  1.1098e-09
  1.1098e-09  1.1098e-09  1.1098e-09  1.1098e-09  1.1098e-09  1.1098e-09  1.1098e-09  1.1098e-09  1.1098e-09  1.1098e-09
  1.1098e-09  1.1098e-09  1.1098e-09  1.1098e-09  1.1098e-09  1.1098e-09  1.1098e-09  1.1098e-09  1.1098e-09  1.1098e-09
  1.1098e-09  1.1098e-09  1.1098e-09  1.1098e-09  1.1098e-09  1.1098e-09  1.1098e-09  1.1098e-09  1.1098e-09  1.1098e-09
  1.1098e-09  1.1098e-09  1.1098e-09  1.1098e-09  1.1098e-09  1.1098e-09  1.1098e-09  1.1098e-09  1.1098e-09  1.1098e-09
  1.1098e-09  1.1098e-09  1.1098e-09  1.1098e-09  1.1098e-09  1.1098e-09  1.1098e-09  1.1098e-09  1.1098e-09  1.1098e-09
  1.1098e-09  1.1098e-09  1.1098e-09  1.1098e-09  1.1098e-09  1.1098e-09  1.1098e-09  1.1098e-09  1.1098e-09  1.1098e-09
  1.1098e-09  1.1098e-09  1.1098e-09  1.1098e-09  1.1098e-09  1.1098e-09  1.1098e-09  1.1098e-09  1.1098e-09  1.1098e-09
  1.1098e-09  1.1098e-09  1.1098e-09  1.1098e-09  1.1098e-09  1.1098e-09  1.1098e-09  1.1098e-09  1.1098e-09  1.1098e-09
  1.1098e-09  1.1098e-09  1.1098e-09  1.1098e-09  1.1098e-09  1.1098e-09  1.1098e-09  1.1098e-09  1.1098e-09  1.1098e-09
  1.1098e-09  1.1098e-09  1.1098e-09  1.1098e-09  1.1098e-09  1.1098e-09  1.1098e-09  1.1098e-09  1.1098e-09  1.1098e-09
  1.1098e-09  1.1098e-09  1.1098e-09  1.1098e-09  1.1098e-09  1.1098e-09  1.1098e-09  1.1098e-09  1.1098e-09  1.1098e-09
  1.1098e-09  1.1098e-09  1.1098e-09  1.1098e-09  1.1098e-09  1.1098e-09  1.1098e-09  1.1098e-09  1.1098e-09  1.1098e-09
  1.1098e-09  1.1098e-09  1.1098e-09  1.1098e-09  1.1098e-09  1.1098e-09  1.1098e-09  1.1098e-09  1.1098e-09  1.1098e-09
  1.1098e-09  1.1098e-09  1.1098e-09  1.1098e-09  1.1098e-09  1.1098e-09  1.1098e-09
  1.1098e-09  1.1098e-09  1.1098e-09  1.1098e-09  1.1098e-09  1.1098e-09  1.1098e-09  1.1098e-09  1.1098e-09  1.1098e-09
  1.1098e-09  1.1098e-09  1.1098e-09  1.1098e-09  1.1098e-09  1.1098e-09  1.1098e-09  1.1098e-09  1.1098e-09  1.1098e-09
  1.1098e-09  1.1098e-09  1.1098e-09  1.1098e-09  1.1098e-09  1.1098e-09  1.1098e-09  1.1098e-09  1.1098e-09  1.1098e-09
  1.1098e-09  1.1098e-09  1.1098e-09  1.1098e-09  1.1098e-09  1.1098e-09  1.1098e-09  1.1098e-09  1.1098e-09  1.1098e-09
  1.1098e-09  1.1098e-09  1.1098e-09  1.1098e-09  1.1098e-09  1.1098e-09  1.1098e-09  1.1098e-09  1.1098e-09  1.1098e-09
  1.1098e-09  1.1098e-09  1.1098e-09  1.1098e-09  1.1098e-09  1.1098e-09  1.1098e-09  1.1098e-09  1.1098e-09  1.1098e-09
  1.1098e-09  1.1098e-09  1.1098e-09  1.1098e-09  1.1098e-09  1.1098e-09  1.1098e-09  1.1098e-09  1.1098e-09  1.1098e-09
  1.1098e-09  1.1098e-09  1.1098e-09  1.1098e-09  1.1098e-09  1.1098e-09  1.1098e-09  1.1098e-09  1.1098e-09  1.1098e-09
  1.1098e-09  1.1098e-09  1.1098e-09  1.1098e-09  1.1098e-09  1.1098e-09  1.1098e-09  1.1098e-09  1.1098e-09  1.1098e-09
  1.1098e-09  1.1098e-09  1.1098e-09  1.1098e-09  1.1098e-09  1.1098e-09  1.1098e-09  1.1098e-09  1.1098e-09  1.1098e-09
  1.1098e-09  1.1098e-09  1.1098e-09  1.1098e-09  1.1098e-09  1.1098e-09  1.1098e-09  1.1098e-09  1.1098e-09  1.1098e-09
  1.1098e-09  1.1098e-09  1.1098e-09  1.1098e-09  1.1098e-09  1.1098e-09  1.1098e-09  1.1098e-09  1.1098e-09  1.1098e-09
  1.1098e-09  1.1098e-09  1.1098e-09  1.1098e-09  1.1098e-09  1.1098e-09  1.1098e-09  1.1098e-09  1.1098e-09  1.1098e-09
  1.1098e-09  1.1098e-09  1.1098e-09  1.1098e-09  1.1098e-09  1.1098e-09  1.1098e-09  1.1098e-09  1.1098e-09  1.1098e-09
  1.1098e-09  1.1098e-09  1.1098e-09  1.1098e-09  1.1098e-09  1.1098e-09  1.1098e-09
  1.1098e-09  1.1098e-09  1.1098e-09  1.1098e-09  1.1098e-09  1.1098e-09  1.1098e-09  1.1098e-09  1.1098e-09  1.1098e-09
  1.1098e-09  1.1098e-09  1.1098e-09  1.1098e-09  1.1098e-09  1.1098e-09  1.1098e-09  1.1098e-09  1.1098e-09  1.1098e-09
  1.1098e-09  1.1098e-09  1.1098e-09  1.1098e-09  1.1098e-09  1.1098e-09  1.1098e-09  1.1098e-09  1.1098e-09  1.1098e-09
  1.1098e-09  1.1098e-09  1.1098e-09  1.1098e-09  1.1098e-09  1.1098e-09  1.1098e-09  1.1098e-09  1.1098e-09  1.1098e-09
  1.1098e-09  1.1098e-09  1.1098e-09  1.1098e-09  1.1098e-09  1.1098e-09  1.1098e-09  1.1098e-09  1.1098e-09  1.1098e-09
  1.1098e-09  1.1098e-09  1.1098e-09  1.1098e-09  1.1098e-09  1.1098e-09  1.1098e-09  1.1098e-09  1.1098e-09  1.1098e-09
  1.1098e-09  1.1098e-09  1.1098e-09  1.1098e-09  1.1098e-09  1.1098e-09  1.1098e-09  1.1098e-09  1.1098e-09  1.1098e-09
  1.1098e-09  1.1098e-09  1.1098e-09  1.1098e-09  1.1098e-09  1.1098e-09  1.1098e-09  1.1098e-09  1.1098e-09  1.1098e-09
  1.1098e-09  1.1098e-09  1.1098e-09  1.1098e-09  1.1098e-09  1.1098e-09  1.1098e-09  1.1098e-09  1.1098e-09  1.1098e-09
  1.1098e-09  1.1098e-09  1.1098e-09  1.1098e-09  1.1098e-09  1.1098e-09  1.1098e-09  1.1098e-09  1.1098e-09  1.1098e-09
  1.1098e-09  1.1098e-09  1.1098e-09  1.1098e-09  1.1098e-09  1.1098e-09  1.1098e-09  1.1098e-09  1.1098e-09  1.1098e-09
  1.1098e-09  1.1098e-09  1.1098e-09  1.1098e-09  1.1098e-09  1.1098e-09  1.1098e-09  1.1098e-09  1.1098e-09  1.1098e-09
  1.1098e-09  1.1098e-09  1.1098e-09  1.1098e-09  1.1098e-09  1.1098e-09  1.1098e-09  1.1098e-09  1.1098e-09  1.1098e-09
  1.1098e-09  1.1098e-09  1.1098e-09  1.1098e-09  1.1098e-09  1.1098e-09  1.1098e-09  1.1098e-09  1.1098e-09  1.1098e-09
  1.1098e-09  1.1098e-09  1.1098e-09  1.1098e-09  1.1098e-09  1.1098e-09  1.1098e-09
  1.1098e-09  1.1098e-09  1.1098e-09  1.1098e-09  1.1098e-09  1.1098e-09  1.1098e-09  1.1098e-09  1.1098e-09  1.1098e-09
  1.1098e-09  1.1098e-09  1.1098e-09  1.1098e-09  1.1098e-09  1.1098e-09  1.1098e-09  1.1098e-09  1.1098e-09  1.1098e-09
  1.1098e-09  1.1098e-09  1.1098e-09  1.1098e-09  1.1098e-09  1.1098e-09  1.1098e-09  1.1098e-09  1.1098e-09  1.1098e-09
  1.1098e-09  1.1098e-09  1.1098e-09  1.1098e-09  1.1098e-09  1.1098e-09  1.1098e-09  1.1098e-09  1.1098e-09  1.1098e-09
  1.1098e-09  1.1098e-09  1.1098e-09  1.1098e-09  1.1098e-09  1.1098e-09  1.1098e-09  1.1098e-09  1.1098e-09  1.1098e-09
  1.1098e-09  1.1098e-09  1.1098e-09  1.1098e-09  1.1098e-09  1.1098e-09  1.1098e-09  1.1098e-09  1.1098e-09  1.1098e-09
  1.1098e-09  1.1098e-09  1.1098e-09  1.1098e-09  1.1098e-09  1.1098e-09  1.1098e-09  1.1098e-09  1.1098e-09  1.1098e-09
  1.1098e-09  1.1098e-09  1.1098e-09  1.1098e-09  1.1098e-09  1.1098e-09  1.1098e-09  1.1098e-09  1.1098e-09  1.1098e-09
  1.1098e-09  1.1098e-09  1.1098e-09  1.1098e-09  1.1098e-09  1.1098e-09  1.1098e-09  1.1098e-09  1.1098e-09  1.1098e-09
  1.1098e-09  1.1098e-09  1.1098e-09  1.1098e-09  1.1098e-09  1.1098e-09  1.1098e-09  1.1098e-09  1.1098e-09  1.1098e-09
  1.1098e-09  1.1098e-09  1.1098e-09  1.1098e-09  1.1098e-09  1.1098e-09  1.1098e-09  1.1098e-09  1.1098e-09  1.1098e-09
  1.1098e-09  1.1098e-09  1.1098e-09  1.1098e-09  1.1098e-09  1.1098e-09  1.1098e-09  1.1098e-09  1.1098e-09  1.1098e-09
  1.1098e-09  1.1098e-09  1.1098e-09  1.1098e-09  1.1098e-09  1.1098e-09  1.1098e-09  1.1098e-09  1.1098e-09  1.1098e-09
  1.1098e-09  1.1098e-09  1.1098e-09  1.1098e-09  1.1098e-09  1.1098e-09  1.1098e-09  1.1098e-09  1.1098e-09  1.1098e-09
  1.1098e-09  1.1098e-09  1.1098e-09  1.1098e-09  1.1098e-09  1.1098e-09  1.1098e-09
  1.1098e-09  1.1098e-09  1.1098e-09  1.1098e-09  1.1098e-09  1.1098e-09  1.1098e-09  1.1098e-09  1.1098e-09  1.1098e-09
  1.1098e-09  1.1098e-09  1.1098e-09  1.1098e-09  1.1098e-09  1.1098e-09  1.1098e-09  1.1098e-09  1.1098e-09  1.1098e-09
  1.1098e-09  1.1098e-09  1.1098e-09  1.1098e-09  1.1098e-09  1.1098e-09  1.1098e-09  1.1098e-09  1.1098e-09  1.1098e-09
  1.1098e-09  1.1098e-09  1.1098e-09  1.1098e-09  1.1098e-09  1.1098e-09  1.1098e-09  1.1098e-09  1.1098e-09  1.1098e-09
  1.1098e-09  1.1098e-09  1.1098e-09  1.1098e-09  1.1098e-09  1.1098e-09  1.1098e-09  1.1098e-09  1.1098e-09  1.1098e-09
  1.1098e-09  1.1098e-09  1.1098e-09  1.1098e-09  1.1098e-09  1.1098e-09  1.1098e-09  1.1098e-09  1.1098e-09  1.1098e-09
  1.1098e-09  1.1098e-09  1.1098e-09  1.1098e-09  1.1098e-09  1.1098e-09  1.1098e-09  1.1098e-09  1.1098e-09  1.1098e-09
  1.1098e-09  1.1098e-09  1.1098e-09  1.1098e-09  1.1098e-09  1.1098e-09  1.1098e-09  1.1098e-09  1.1098e-09  1.1098e-09
  1.1098e-09  1.1098e-09  1.1098e-09  1.1098e-09  1.1098e-09  1.1098e-09  1.1098e-09  1.1098e-09  1.1098e-09  1.1098e-09
  1.1098e-09  1.1098e-09  1.1098e-09  1.1098e-09  1.1098e-09  1.1098e-09  1.1098e-09  1.1098e-09  1.1098e-09  1.1098e-09
  1.1098e-09  1.1098e-09  1.1098e-09  1.1098e-09  1.1098e-09  1.1098e-09  1.1098e-09  1.1098e-09  1.1098e-09  1.1098e-09
  1.1098e-09  1.1098e-09  1.1098e-09  1.1098e-09  1.1098e-09  1.1098e-09  1.1098e-09  1.1098e-09  1.1098e-09  1.1098e-09
  1.1098e-09  1.1098e-09  1.1098e-09  1.1098e-09  1.1098e-09  1.1098e-09  1.1098e-09  1.1098e-09  1.1098e-09  1.1098e-09
  1.1098e-09  1.1098e-09  1.1098e-09  1.1098e-09  1.1098e-09  1.1098e-09  1.1098e-09  1.1098e-09  1.1098e-09  1.1098e-09
  1.1098e-09  1.1098e-09  1.1098e-09  1.1098e-09  1.1098e-09  1.1098e-09  1.1098e-09
  1.1098e-09  1.1098e-09  1.1098e-09  1.1098e-09  1.1098e-09  1.1098e-09  1.1098e-09  1.1098e-09  1.1098e-09  1.1098e-09
  1.1098e-09  1.1098e-09  1.1098e-09  1.1098e-09  1.1098e-09  1.1098e-09  1.1098e-09  1.1098e-09  1.1098e-09  1.1098e-09
  1.1098e-09  1.1098e-09  1.1098e-09  1.1098e-09  1.1098e-09  1.1098e-09  1.1098e-09  1.1098e-09  1.1098e-09  1.1098e-09
  1.1098e-09  1.1098e-09  1.1098e-09  1.1098e-09  1.1098e-09  1.1098e-09  1.1098e-09  1.1098e-09  1.1098e-09  1.1098e-09
  1.1098e-09  1.1098e-09  1.1098e-09  1.1098e-09  1.1098e-09  1.1098e-09  1.1098e-09  1.1098e-09  1.1098e-09  1.1098e-09
  1.1098e-09  1.1098e-09  1.1098e-09  1.1098e-09  1.1098e-09  1.1098e-09  1.1098e-09  1.1098e-09  1.1098e-09  1.1098e-09
  1.1098e-09  1.1098e-09  1.1098e-09  1.1098e-09  1.1098e-09  1.1098e-09  1.1098e-09  1.1098e-09  1.1098e-09  1.1098e-09
  1.1098e-09  1.1098e-09  1.1098e-09  1.1098e-09  1.1098e-09  1.1098e-09  1.1098e-09  1.1098e-09  1.1098e-09  1.1098e-09
  1.1098e-09  1.1098e-09  1.1098e-09  1.1098e-09  1.1098e-09  1.1098e-09  1.1098e-09  1.1098e-09  1.1098e-09  1.1098e-09
  1.1098e-09  1.1098e-09  1.1098e-09  1.1098e-09  1.1098e-09  1.1098e-09  1.1098e-09  1.1098e-09  1.1098e-09  1.1098e-09
  1.1098e-09  1.1098e-09  1.1098e-09  1.1098e-09  1.1098e-09  1.1098e-09  1.1098e-09  1.1098e-09  1.1098e-09  1.1098e-09
  1.1098e-09  1.1098e-09  1.1098e-09  1.1098e-09  1.1098e-09  1.1098e-09  1.1098e-09  1.1098e-09  1.1098e-09  1.1098e-09
  1.1098e-09  1.1098e-09  1.1098e-09  1.1098e-09  1.1098e-09  1.1098e-09  1.1098e-09  1.1098e-09  1.1098e-09  1.1098e-09
  1.1098e-09  1.1098e-09  1.1098e-09  1.1098e-09  1.1098e-09  1.1098e-09  1.1098e-09  1.1098e-09  1.1098e-09  1.1098e-09
  1.1098e-09  1.1098e-09  1.1098e-09  1.1098e-09  1.1098e-09  1.1098e-09  1.1098e-09
  1.1098e-09  1.1098e-09  1.1098e-09  1.1098e-09  1.1098e-09  1.1098e-09  1.1098e-09  1.1098e-09  1.1098e-09  1.1098e-09
  1.1098e-09  1.1098e-09  1.1098e-09  1.1098e-09  1.1098e-09  1.1098e-09  1.1098e-09  1.1098e-09  1.1098e-09  1.1098e-09
  1.1098e-09  1.1098e-09  1.1098e-09  1.1098e-09  1.1098e-09  1.1098e-09  1.1098e-09  1.1098e-09  1.1098e-09  1.1098e-09
  1.1098e-09  1.1098e-09  1.1098e-09  1.1098e-09  1.1098e-09  1.1098e-09  1.1098e-09  1.1098e-09  1.1098e-09  1.1098e-09
  1.1098e-09  1.1098e-09  1.1098e-09  1.1098e-09  1.1098e-09  1.1098e-09  1.1098e-09  1.1098e-09  1.1098e-09  1.1098e-09
  1.1098e-09  1.1098e-09  1.1098e-09  1.1098e-09  1.1098e-09  1.1098e-09  1.1098e-09  1.1098e-09  1.1098e-09  1.1098e-09
  1.1098e-09  1.1098e-09  1.1098e-09  1.1098e-09  1.1098e-09  1.1098e-09  1.1098e-09  1.1098e-09  1.1098e-09  1.1098e-09
  1.1098e-09  1.1098e-09  1.1098e-09  1.1098e-09  1.1098e-09  1.1098e-09  1.1098e-09  1.1098e-09  1.1098e-09  1.1098e-09
  1.1098e-09  1.1098e-09  1.1098e-09  1.1098e-09  1.1098e-09  1.1098e-09  1.1098e-09  1.1098e-09  1.1098e-09  1.1098e-09
  1.1098e-09  1.1098e-09  1.1098e-09  1.1098e-09  1.1098e-09  1.1098e-09  1.1098e-09  1.1098e-09  1.1098e-09  1.1098e-09
  1.1098e-09  1.1098e-09  1.1098e-09  1.1098e-09  1.1098e-09  1.1098e-09  1.1098e-09  1.1098e-09  1.1098e-09  1.1098e-09
  1.1098e-09  1.1098e-09  1.1098e-09  1.1098e-09  1.1098e-09  1.1098e-09  1.1098e-09  1.1098e-09  1.1098e-09  1.1098e-09
  1.1098e-09  1.1098e-09  1.1098e-09  1.1098e-09  1.1098e-09  1.1098e-09  1.1098e-09  1.1098e-09  1.1098e-09  1.1098e-09
  1.1098e-09  1.1098e-09  1.1098e-09  1.1098e-09  1.1098e-09  1.1098e-09  1.1098e-09  1.1098e-09  1.1098e-09  1.1098e-09
  1.1098e-09  1.1098e-09  1.1098e-09  1.1098e-09  1.1098e-09  1.1098e-09  1.1098e-09
  1.1098e-09  1.1098e-09  1.1098e-09  1.1098e-09  1.1098e-09  1.1098e-09  1.1098e-09  1.1098e-09  1.1098e-09  1.1098e-09
  1.1098e-09  1.1098e-09  1.1098e-09  1.1098e-09  1.1098e-09  1.1098e-09  1.1098e-09  1.1098e-09  1.1098e-09  1.1098e-09
  1.1098e-09  1.1098e-09  1.1098e-09  1.1098e-09  1.1098e-09  1.1098e-09  1.1098e-09  1.1098e-09  1.1098e-09  1.1098e-09
  1.1098e-09  1.1098e-09  1.1098e-09  1.1098e-09  1.1098e-09  1.1098e-09  1.1098e-09  1.1098e-09  1.1098e-09  1.1098e-09
  1.1098e-09  1.1098e-09  1.1098e-09  1.1098e-09  1.1098e-09  1.1098e-09  1.1098e-09  1.1098e-09  1.1098e-09  1.1098e-09
  1.1098e-09  1.1098e-09  1.1098e-09  1.1098e-09  1.1098e-09  1.1098e-09  1.1098e-09  1.1098e-09  1.1098e-09  1.1098e-09
  1.1098e-09  1.1098e-09  1.1098e-09  1.1098e-09  1.1098e-09  1.1098e-09  1.1098e-09  1.1098e-09  1.1098e-09  1.1098e-09
  1.1098e-09  1.1098e-09  1.1098e-09  1.1098e-09  1.1098e-09  1.1098e-09  1.1098e-09  1.1098e-09  1.1098e-09  1.1098e-09
  1.1098e-09  1.1098e-09  1.1098e-09  1.1098e-09  1.1098e-09  1.1098e-09  1.1098e-09  1.1098e-09  1.1098e-09  1.1098e-09
  1.1098e-09  1.1098e-09  1.1098e-09  1.1098e-09  1.1098e-09  1.1098e-09  1.1098e-09  1.1098e-09  1.1098e-09  1.1098e-09
  1.1098e-09  1.1098e-09  1.1098e-09  1.1098e-09  1.1098e-09  1.1098e-09  1.1098e-09  1.1098e-09  1.1098e-09  1.1098e-09
  1.1098e-09  1.1098e-09  1.1098e-09  1.1098e-09  1.1098e-09  1.1098e-09  1.1098e-09  1.1098e-09  1.1098e-09  1.1098e-09
  1.1098e-09  1.1098e-09  1.1098e-09  1.1098e-09  1.1098e-09  1.1098e-09  1.1098e-09  1.1098e-09  1.1098e-09  1.1098e-09
  1.1098e-09  1.1098e-09  1.1098e-09  1.1098e-09  1.1098e-09  1.1098e-09  1.1098e-09  1.1098e-09  1.1098e-09  1.1098e-09
  1.1098e-09  1.1098e-09  1.1098e-09  1.1098e-09  1.1098e-09  1.1098e-09  1.1098e-09
  1.1098e-09  1.1098e-09  1.1098e-09  1.1098e-09  1.1098e-09  1.1098e-09  1.1098e-09  1.1098e-09  1.1098e-09  1.1098e-09
  1.1098e-09  1.1098e-09  1.1098e-09  1.1098e-09  1.1098e-09  1.1098e-09  1.1098e-09  1.1098e-09  1.1098e-09  1.1098e-09
  1.1098e-09  1.1098e-09  1.1098e-09  1.1098e-09  1.1098e-09  1.1098e-09  1.1098e-09  1.1098e-09  1.1098e-09  1.1098e-09
  1.1098e-09  1.1098e-09  1.1098e-09  1.1098e-09  1.1098e-09  1.1098e-09  1.1098e-09  1.1098e-09  1.1098e-09  1.1098e-09
  1.1098e-09  1.1098e-09  1.1098e-09  1.1098e-09  1.1098e-09  1.1098e-09  1.1098e-09  1.1098e-09  1.1098e-09  1.1098e-09
  1.1098e-09  1.1098e-09  1.1098e-09  1.1098e-09  1.1098e-09  1.1098e-09  1.1098e-09  1.1098e-09  1.1098e-09  1.1098e-09
  1.1098e-09  1.1098e-09  1.1098e-09  1.1098e-09  1.1098e-09  1.1098e-09  1.1098e-09  1.1098e-09  1.1098e-09  1.1098e-09
  1.1098e-09  1.1098e-09  1.1098e-09  1.1098e-09  1.1098e-09  1.1098e-09  1.1098e-09  1.1098e-09  1.1098e-09  1.1098e-09
  1.1098e-09  1.1098e-09  1.1098e-09  1.1098e-09  1.1098e-09  1.1098e-09  1.1098e-09  1.1098e-09  1.1098e-09  1.1098e-09
  1.1098e-09  1.1098e-09  1.1098e-09  1.1098e-09  1.1098e-09  1.1098e-09  1.1098e-09  1.1098e-09  1.1098e-09  1.1098e-09
  1.1098e-09  1.1098e-09  1.1098e-09  1.1098e-09  1.1098e-09  1.1098e-09  1.1098e-09  1.1098e-09  1.1098e-09  1.1098e-09
  1.1098e-09  1.1098e-09  1.1098e-09  1.1098e-09  1.1098e-09  1.1098e-09  1.1098e-09  1.1098e-09  1.1098e-09  1.1098e-09
  1.1098e-09  1.1098e-09  1.1098e-09  1.1098e-09  1.1098e-09  1.1098e-09  1.1098e-09  1.1098e-09  1.1098e-09  1.1098e-09
  1.1098e-09  1.1098e-09  1.1098e-09  1.1098e-09  1.1098e-09  1.1098e-09  1.1098e-09  1.1098e-09  1.1098e-09  1.1098e-09
  1.1098e-09  1.1098e-09  1.1098e-09  1.1098e-09  1.1098e-09  1.1098e-09  1.1098e-09
  1.1098e-09  1.1098e-09  1.1098e-09  1.1098e-09  1.1098e-09  1.1098e-09  1.1098e-09  1.1098e-09  1.1098e-09  1.1098e-09
  1.1098e-09  1.1098e-09  1.1098e-09  1.1098e-09  1.1098e-09  1.1098e-09  1.1098e-09  1.1098e-09  1.1098e-09  1.1098e-09
  1.1098e-09  1.1098e-09  1.1098e-09  1.1098e-09  1.1098e-09  1.1098e-09  1.1098e-09  1.1098e-09  1.1098e-09  1.1098e-09
  1.1098e-09  1.1098e-09  1.1098e-09  1.1098e-09  1.1098e-09  1.1098e-09  1.1098e-09  1.1098e-09  1.1098e-09  1.1098e-09
  1.1098e-09  1.1098e-09  1.1098e-09  1.1098e-09  1.1098e-09  1.1098e-09  1.1098e-09  1.1098e-09  1.1098e-09  1.1098e-09
  1.1098e-09  1.1098e-09  1.1098e-09  1.1098e-09  1.1098e-09  1.1098e-09  1.1098e-09  1.1098e-09  1.1098e-09  1.1098e-09
  1.1098e-09  1.1098e-09  1.1098e-09  1.1098e-09  1.1098e-09  1.1098e-09  1.1098e-09  1.1098e-09  1.1098e-09  1.1098e-09
  1.1098e-09  1.1098e-09  1.1098e-09  1.1098e-09  1.1098e-09  1.1098e-09  1.1098e-09  1.1098e-09  1.1098e-09  1.1098e-09
  1.1098e-09  1.1098e-09  1.1098e-09  1.1098e-09  1.1098e-09  1.1098e-09  1.1098e-09  1.1098e-09  1.1098e-09  1.1098e-09
  1.1098e-09  1.1098e-09  1.1098e-09  1.1098e-09  1.1098e-09  1.1098e-09  1.1098e-09  1.1098e-09  1.1098e-09  1.1098e-09
  1.1098e-09  1.1098e-09  1.1098e-09  1.1098e-09  1.1098e-09  1.1098e-09  1.1098e-09  1.1098e-09  1.1098e-09  1.1098e-09
  1.1098e-09  1.1098e-09  1.1098e-09  1.1098e-09  1.1098e-09  1.1098e-09  1.1098e-09  1.1098e-09  1.1098e-09  1.1098e-09
  1.1098e-09  1.1098e-09  1.1098e-09  1.1098e-09  1.1098e-09  1.1098e-09  1.1098e-09  1.1098e-09  1.1098e-09  1.1098e-09
  1.1098e-09  1.1098e-09  1.1098e-09  1.1098e-09  1.1098e-09  1.1098e-09  1.1098e-09  1.1098e-09  1.1098e-09  1.1098e-09
  1.1098e-09  1.1098e-09  1.1098e-09  1.1098e-09  1.1098e-09  1.1098e-09  1.1098e-09
  1.1098e-09  1.1098e-09  1.1098e-09  1.1098e-09  1.1098e-09  1.1098e-09  1.1098e-09  1.1098e-09  1.1098e-09  1.1098e-09
  1.1098e-09  1.1098e-09  1.1098e-09  1.1098e-09  1.1098e-09  1.1098e-09  1.1098e-09  1.1098e-09  1.1098e-09  1.1098e-09
  1.1098e-09  1.1098e-09  1.1098e-09  1.1098e-09  1.1098e-09  1.1098e-09  1.1098e-09  1.1098e-09  1.1098e-09  1.1098e-09
  1.1098e-09  1.1098e-09  1.1098e-09  1.1098e-09  1.1098e-09  1.1098e-09  1.1098e-09  1.1098e-09  1.1098e-09  1.1098e-09
  1.1098e-09  1.1098e-09  1.1098e-09  1.1098e-09  1.1098e-09  1.1098e-09  1.1098e-09  1.1098e-09  1.1098e-09  1.1098e-09
  1.1098e-09  1.1098e-09  1.1098e-09  1.1098e-09  1.1098e-09  1.1098e-09  1.1098e-09  1.1098e-09  1.1098e-09  1.1098e-09
  1.1098e-09  1.1098e-09  1.1098e-09  1.1098e-09  1.1098e-09  1.1098e-09  1.1098e-09  1.1098e-09  1.1098e-09  1.1098e-09
  1.1098e-09  1.1098e-09  1.1098e-09  1.1098e-09  1.1098e-09  1.1098e-09  1.1098e-09  1.1098e-09  1.1098e-09  1.1098e-09
  1.1098e-09  1.1098e-09  1.1098e-09  1.1098e-09  1.1098e-09  1.1098e-09  1.1098e-09  1.1098e-09  1.1098e-09  1.1098e-09
  1.1098e-09  1.1098e-09  1.1098e-09  1.1098e-09  1.1098e-09  1.1098e-09  1.1098e-09  1.1098e-09  1.1098e-09  1.1098e-09
  1.1098e-09  1.1098e-09  1.1098e-09  1.1098e-09  1.1098e-09  1.1098e-09  1.1098e-09  1.1098e-09  1.1098e-09  1.1098e-09
  1.1098e-09  1.1098e-09  1.1098e-09  1.1098e-09  1.1098e-09  1.1098e-09  1.1098e-09  1.1098e-09  1.1098e-09  1.1098e-09
  1.1098e-09  1.1098e-09  1.1098e-09  1.1098e-09  1.1098e-09  1.1098e-09  1.1098e-09  1.1098e-09  1.1098e-09  1.1098e-09
  1.1098e-09  1.1098e-09  1.1098e-09  1.1098e-09  1.1098e-09  1.1098e-09  1.1098e-09  1.1098e-09  1.1098e-09  1.1098e-09
  1.1098e-09  1.1098e-09  1.1098e-09  1.1098e-09  1.1098e-09  1.1098e-09  1.1098e-09
  1.1098e-09  1.1098e-09  1.1098e-09  1.1098e-09  1.1098e-09  1.1098e-09  1.1098e-09  1.1098e-09  1.1098e-09  1.1098e-09
  1.1098e-09  1.1098e-09  1.1098e-09  1.1098e-09  1.1098e-09  1.1098e-09  1.1098e-09  1.1098e-09  1.1098e-09  1.1098e-09
  1.1098e-09  1.1098e-09  1.1098e-09  1.1098e-09  1.1098e-09  1.1098e-09  1.1098e-09  1.1098e-09  1.1098e-09  1.1098e-09
  1.1098e-09  1.1098e-09  1.1098e-09  1.1098e-09  1.1098e-09  1.1098e-09  1.1098e-09  1.1098e-09  1.1098e-09  1.1098e-09
  1.1098e-09  1.1098e-09  1.1098e-09  1.1098e-09  1.1098e-09  1.1098e-09  1.1098e-09  1.1098e-09  1.1098e-09  1.1098e-09
  1.1098e-09  1.1098e-09  1.1098e-09  1.1098e-09  1.1098e-09  1.1098e-09  1.1098e-09  1.1098e-09  1.1098e-09  1.1098e-09
  1.1098e-09  1.1098e-09  1.1098e-09  1.1098e-09  1.1098e-09  1.1098e-09  1.1098e-09  1.1098e-09  1.1098e-09  1.1098e-09
  1.1098e-09  1.1098e-09  1.1098e-09  1.1098e-09  1.1098e-09  1.1098e-09  1.1098e-09  1.1098e-09  1.1098e-09  1.1098e-09
  1.1098e-09  1.1098e-09  1.1098e-09  1.1098e-09  1.1098e-09  1.1098e-09  1.1098e-09  1.1098e-09  1.1098e-09  1.1098e-09
  1.1098e-09  1.1098e-09  1.1098e-09  1.1098e-09  1.1098e-09  1.1098e-09  1.1098e-09  1.1098e-09  1.1098e-09  1.1098e-09
  1.1098e-09  1.1098e-09  1.1098e-09  1.1098e-09  1.1098e-09  1.1098e-09  1.1098e-09  1.1098e-09  1.1098e-09  1.1098e-09
  1.1098e-09  1.1098e-09  1.1098e-09  1.1098e-09  1.1098e-09  1.1098e-09  1.1098e-09  1.1098e-09  1.1098e-09  1.1098e-09
  1.1098e-09  1.1098e-09  1.1098e-09  1.1098e-09  1.1098e-09  1.1098e-09  1.1098e-09  1.1098e-09  1.1098e-09  1.1098e-09
  1.1098e-09  1.1098e-09  1.1098e-09  1.1098e-09  1.1098e-09  1.1098e-09  1.1098e-09  1.1098e-09  1.1098e-09  1.1098e-09
  1.1098e-09  1.1098e-09  1.1098e-09  1.1098e-09  1.1098e-09  1.1098e-09  1.1098e-09
  1.1098e-09  1.1098e-09  1.1098e-09  1.1098e-09  1.1098e-09  1.1098e-09  1.1098e-09  1.1098e-09  1.1098e-09  1.1098e-09
  1.1098e-09  1.1098e-09  1.1098e-09  1.1098e-09  1.1098e-09  1.1098e-09  1.1098e-09  1.1098e-09  1.1098e-09  1.1098e-09
  1.1098e-09  1.1098e-09  1.1098e-09  1.1098e-09  1.1098e-09  1.1098e-09  1.1098e-09  1.1098e-09  1.1098e-09  1.1098e-09
  1.1098e-09  1.1098e-09  1.1098e-09  1.1098e-09  1.1098e-09  1.1098e-09  1.1098e-09  1.1098e-09  1.1098e-09  1.1098e-09
  1.1098e-09  1.1098e-09  1.1098e-09  1.1098e-09  1.1098e-09  1.1098e-09  1.1098e-09  1.1098e-09  1.1098e-09  1.1098e-09
  1.1098e-09  1.1098e-09  1.1098e-09  1.1098e-09  1.1098e-09  1.1098e-09  1.1098e-09  1.1098e-09  1.1098e-09  1.1098e-09
  1.1098e-09  1.1098e-09  1.1098e-09  1.1098e-09  1.1098e-09  1.1098e-09  1.1098e-09  1.1098e-09  1.1098e-09  1.1098e-09
  1.1098e-09  1.1098e-09  1.1098e-09  1.1098e-09  1.1098e-09  1.1098e-09  1.1098e-09  1.1098e-09  1.1098e-09  1.1098e-09