BEGIN OPTIONS
  PRINT_INPUT
  PRINT_FLOWS
  SAVE_FLOWS
#  BOUNDNAMES  (specify name for any boundary specified as an observation boundary, if cell node or i,j,k is not used)
END OPTIONS

BEGIN DIMENSIONS
  MAXBOUND 217
END DIMENSIONS

BEGIN PERIOD 1
         1        86       142    37.993 1.837e-02    37.493         0
         1        86       143    37.945 1.837e-02    37.445         0
         1        87       140    38.201 1.837e-02    37.701         0
         1        87       141    38.132 1.837e-02    37.632         0
         1        87       142    38.042 1.837e-02    37.542         0
         1        87       143    37.891 1.837e-02    37.391         0
         1        87       144    37.841 1.837e-02    37.341         0
         1        87       145    37.746 1.837e-02    37.246         0
         1        87       146    37.650 1.837e-02    37.150         0
         1        87       147    37.600 1.837e-02    37.100         0
         1        88       135    38.699 1.837e-02    38.199         0
         1        88       136    38.612 1.837e-02    38.112         0
         1        88       137    38.518 1.837e-02    38.018         0
         1        88       138    38.418 1.837e-02    37.918         0
         1        88       139    38.327 1.837e-02    37.827         0
         1        88       140    38.250 1.837e-02    37.750         0
         1        88       147    37.552 1.837e-02    37.052         0
         1        89       133    38.895 1.837e-02    38.395         0
         1        89       134    38.833 1.837e-02    38.333         0
         1        89       135    38.763 1.837e-02    38.263         0
         1        90       127    39.480 1.837e-02    38.980         0
         1        90       128    39.398 1.837e-02    38.898         0
         1        90       129    39.305 1.837e-02    38.805         0
         1        90       130    39.196 1.837e-02    38.696         0
         1        90       131    39.117 1.837e-02    38.617         0
         1        90       132    39.023 1.837e-02    38.523         0
         1        90       133    38.942 1.837e-02    38.442         0
         1        91       124    39.756 1.837e-02    39.256         0
         1        91       125    39.683 1.837e-02    39.183         0
         1        91       126    39.580 1.837e-02    39.080         0
         1        91       127    39.527 1.837e-02    39.027         0
         1        92       122    39.952 1.837e-02    39.452         0
         1        92       123    39.866 1.837e-02    39.366         0
         1        92       124    39.804 1.837e-02    39.304         0
         1        93       121    40.060 1.837e-02    39.560         0
         1        93       122    40.010 1.837e-02    39.510         0
         1        94       119    40.267 1.837e-02    39.767         0
         1        94       120    40.216 1.837e-02    39.716         0
         1        94       121    40.108 1.837e-02    39.608         0
         1        95       117    40.494 1.837e-02    39.994         0
         1        95       118    40.409 1.837e-02    39.909         0
         1        95       119    40.315 1.837e-02    39.815         0
         1        96       114    40.764 1.837e-02    40.264         0
         1        96       115    40.698 1.837e-02    40.198         0
         1        96       116    40.602 1.837e-02    40.102         0
         1        96       117    40.542 1.837e-02    40.042         0
         1        97       112    40.973 1.837e-02    40.473         0
         1        97       113    40.893 1.837e-02    40.393         0
         1        97       114    40.815 1.837e-02    40.315         0
         1        98       110    41.180 1.837e-02    40.680         0
         1        98       111    41.088 1.837e-02    40.588         0
         1        98       112    41.022 1.837e-02    40.522         0
         1        99       108    41.385 1.837e-02    40.885         0
         1        99       109    41.284 1.837e-02    40.784         0
         1        99       110    41.229 1.837e-02    40.729         0
         1       100       106    41.563 1.837e-02    41.063         0
         1       100       107    41.483 1.837e-02    40.983         0
         1       100       108    41.430 1.837e-02    40.930         0
         1       101       104    41.747 1.837e-02    41.247         0
         1       101       105    41.687 1.837e-02    41.187         0
         1       101       106    41.614 1.837e-02    41.114         0
         1       102        99    42.243 1.837e-02    41.743         0
         1       102       100    42.167 1.837e-02    41.667         0
         1       102       101    42.073 1.837e-02    41.573         0
         1       102       102    41.980 1.837e-02    41.480         0
         1       102       103    41.871 1.837e-02    41.371         0
         1       102       104    41.798 1.837e-02    41.298         0
         1       103        71    45.044 1.837e-02    44.544         0
         1       103        72    44.980 1.837e-02    44.480         0
         1       103        73    44.877 1.837e-02    44.377         0
         1       103        74    44.793 1.837e-02    44.293         0
         1       103        92    42.905 1.837e-02    42.405         0
         1       103        93    42.820 1.837e-02    42.320         0
         1       103        94    42.727 1.837e-02    42.227         0
         1       103        95    42.634 1.837e-02    42.134         0
         1       103        96    42.540 1.837e-02    42.040         0
         1       103        97    42.447 1.837e-02    41.947         0
         1       103        98    42.353 1.837e-02    41.853         0
         1       103        99    42.290 1.837e-02    41.790         0
         1       104        70    45.158 1.837e-02    44.658         0
         1       104        71    45.113 1.837e-02    44.613         0
         1       104        74    44.739 1.837e-02    44.239         0
         1       104        75    44.690 1.837e-02    44.190         0
         1       104        77    44.382 1.837e-02    43.882         0
         1       104        78    44.327 1.837e-02    43.827         0
         1       104        79    44.248 1.837e-02    43.748         0
         1       104        91    43.012 1.837e-02    42.512         0
         1       104        92    42.970 1.837e-02    42.470         0
         1       105        69    45.271 1.837e-02    44.771         0
         1       105        70    45.216 1.837e-02    44.716         0
         1       105        75    44.626 1.837e-02    44.126         0
         1       105        76    44.526 1.837e-02    44.026         0
         1       105        77    44.437 1.837e-02    43.937         0
         1       105        79    44.200 1.837e-02    43.700         0
         1       105        80    44.125 1.837e-02    43.625         0
         1       105        81    44.055 1.837e-02    43.555         0
         1       105        90    43.126 1.837e-02    42.626         0
         1       105        91    43.069 1.837e-02    42.569         0
         1       106        68    45.385 1.837e-02    44.885         0
         1       106        69    45.329 1.837e-02    44.829         0
         1       106        81    44.003 1.837e-02    43.503         0
         1       106        82    43.940 1.837e-02    43.440         0
         1       106        83    43.833 1.837e-02    43.333         0
         1       106        84    43.748 1.837e-02    43.248         0
         1       106        85    43.646 1.837e-02    43.146         0
         1       106        86    43.553 1.837e-02    43.053         0
         1       106        87    43.460 1.837e-02    42.960         0
         1       106        88    43.366 1.837e-02    42.866         0
         1       106        89    43.259 1.837e-02    42.759         0
         1       106        90    43.183 1.837e-02    42.683         0
         1       107        67    45.498 1.837e-02    44.998         0
         1       107        68    45.434 1.837e-02    44.934         0
         1       108        66    45.610 1.837e-02    45.110         0
         1       108        67    45.568 1.837e-02    45.068         0
         1       109        66    45.659 1.837e-02    45.159         0
         1       110        65    45.774 1.837e-02    45.274         0
         1       110        66    45.725 1.837e-02    45.225         0
         1       111        64    45.889 1.837e-02    45.389         0
         1       111        65    45.831 1.837e-02    45.331         0
         1       112        63    46.004 1.837e-02    45.504         0
         1       112        64    45.946 1.837e-02    45.446         0
         1       113        62    46.119 1.837e-02    45.619         0
         1       113        63    46.061 1.837e-02    45.561         0
         1       114        61    46.234 1.837e-02    45.734         0
         1       114        62    46.176 1.837e-02    45.676         0
         1       115        60    46.349 1.837e-02    45.849         0
         1       115        61    46.291 1.837e-02    45.791         0
         1       116        59    46.464 1.837e-02    45.964         0
         1       116        60    46.406 1.837e-02    45.906         0
         1       117        58    46.579 1.837e-02    46.079         0
         1       117        59    46.521 1.837e-02    46.021         0
         1       118        57    46.694 1.837e-02    46.194         0
         1       118        58    46.636 1.837e-02    46.136         0
         1       119        56    46.809 1.837e-02    46.309         0
         1       119        57    46.751 1.837e-02    46.251         0
         1       120        55    46.924 1.837e-02    46.424         0
         1       120        56    46.865 1.837e-02    46.365         0
         1       121        54    47.039 1.837e-02    46.539         0
         1       121        55    46.980 1.837e-02    46.480         0
         1       122        53    47.154 1.837e-02    46.654         0
         1       122        54    47.095 1.837e-02    46.595         0
         1       123        52    47.269 1.837e-02    46.769         0
         1       123        53    47.210 1.837e-02    46.710         0
         1       124        51    47.384 1.837e-02    46.884         0
         1       124        52    47.325 1.837e-02    46.825         0
         1       125        50    47.505 1.837e-02    47.005         0
         1       125        51    47.440 1.837e-02    46.940         0
         1       126        48    47.679 1.837e-02    47.179         0
         1       126        49    47.620 1.837e-02    47.120         0
         1       126        50    47.556 1.837e-02    47.056         0
         1       127        47    47.801 1.837e-02    47.301         0
         1       127        48    47.732 1.837e-02    47.232         0
         1       128        46    47.924 1.837e-02    47.424         0
         1       128        47    47.854 1.837e-02    47.354         0
         1       129        44    48.100 1.837e-02    47.600         0
         1       129        45    48.044 1.837e-02    47.544         0
         1       129        46    47.977 1.837e-02    47.477         0
         1       130        43    48.222 1.837e-02    47.722         0
         1       130        44    48.153 1.837e-02    47.653         0
         1       131        42    48.345 1.837e-02    47.845         0
         1       131        43    48.275 1.837e-02    47.775         0
         1       132        40    48.521 1.837e-02    48.021         0
         1       132        41    48.467 1.837e-02    47.967         0
         1       132        42    48.398 1.837e-02    47.898         0
         1       133        39    48.644 1.837e-02    48.144         0
         1       133        40    48.574 1.837e-02    48.074         0
         1       134        38    48.766 1.837e-02    48.266         0
         1       134        39    48.697 1.837e-02    48.197         0
         1       135         6    51.977 1.837e-02    51.477         0
         1       135         7    51.970 1.837e-02    51.470         0
         1       135        36    48.958 1.837e-02    48.458         0
         1       135        37    48.883 1.837e-02    48.383         0
         1       135        38    48.819 1.837e-02    48.319         0
         1       136         7    51.913 1.837e-02    51.413         0
         1       136         8    51.855 1.837e-02    51.355         0
         1       136        34    49.163 1.837e-02    48.663         0
         1       136        35    49.086 1.837e-02    48.586         0
         1       136        36    49.007 1.837e-02    48.507         0
         1       137         8    51.798 1.837e-02    51.298         0
         1       137         9    51.741 1.837e-02    51.241         0
         1       137        32    49.368 1.837e-02    48.868         0
         1       137        33    49.282 1.837e-02    48.782         0
         1       137        34    49.212 1.837e-02    48.712         0
         1       138         9    51.684 1.837e-02    51.184         0
         1       138        10    51.626 1.837e-02    51.126         0
         1       138        30    49.550 1.837e-02    49.050         0
         1       138        31    49.480 1.837e-02    48.980         0
         1       138        32    49.419 1.837e-02    48.919         0
         1       139        10    51.569 1.837e-02    51.069         0
         1       139        11    51.511 1.837e-02    51.011         0
         1       139        29    49.681 1.837e-02    49.181         0
         1       139        30    49.601 1.837e-02    49.101         0
         1       140        11    51.454 1.837e-02    50.954         0
         1       140        12    51.397 1.837e-02    50.897         0
         1       140        27    49.863 1.837e-02    49.363         0
         1       140        28    49.788 1.837e-02    49.288         0
         1       140        29    49.732 1.837e-02    49.232         0
         1       141        12    51.340 1.837e-02    50.840         0
         1       141        13    51.282 1.837e-02    50.782         0
         1       141        25    50.046 1.837e-02    49.546         0
         1       141        26    49.993 1.837e-02    49.493         0
         1       141        27    49.915 1.837e-02    49.415         0
         1       142        13    51.225 1.837e-02    50.725         0
         1       142        14    51.167 1.837e-02    50.667         0
         1       142        16    50.935 1.837e-02    50.435         0
         1       142        17    50.848 1.837e-02    50.348         0
         1       142        18    50.755 1.837e-02    50.255         0
         1       142        19    50.662 1.837e-02    50.162         0
         1       142        20    50.569 1.837e-02    50.069         0
         1       142        21    50.476 1.837e-02    49.976         0
         1       142        22    50.383 1.837e-02    49.883         0
         1       142        23    50.289 1.837e-02    49.789         0
         1       142        24    50.191 1.837e-02    49.691         0
         1       142        25    50.097 1.837e-02    49.597         0
         1       143        14    51.129 1.837e-02    50.629         0
         1       143        15    51.035 1.837e-02    50.535         0
         1       143        16    50.981 1.837e-02    50.481         0
END PERIOD