BEGIN OPTIONS
  HEAD FILEOUT TM9_global_gv.hds
  BUDGET FILEOUT TM9_global_gv.cbb
END OPTIONS

BEGIN PERIOD 1
  PRINT BUDGET ALL
  SAVE BUDGET ALL
  PRINT HEAD ALL
  SAVE HEAD ALL
END PERIOD

