BEGIN OPTIONS
END OPTIONS

BEGIN DIMENSIONS
  NLAY 1
  NROW 100
  NCOL 100
END DIMENSIONS

BEGIN GRIDDATA
  DELR
    CONSTANT 1.
  DELC
    CONSTANT 1.
  TOP
    CONSTANT 0.
  BOTM
    CONSTANT -1.
END GRIDDATA
