BEGIN DIMENSIONS
  MAXBOUND 3
END DIMENSIONS

BEGIN PERIOD 1
         18 0.057599999999999991
         19 0.057599999999999991
         20 0.057599999999999991
END PERIOD

