BEGIN OPTIONS
  PRINT_FLOWS
END OPTIONS

BEGIN DIMENSIONS
  NUMGNC 554
  NUMALPHAJ 1
END DIMENSIONS

BEGIN GNCDATA
         41         1        42  0.66666666666666663
         42         1        41  0.33333333333333337
         42         2        43                  0.5
         43         2        42                  0.5
         43         3        44                  0.5
         44         3        43                  0.5
         44         4        45                  0.5
         45         4        44                  0.5
         45         5        46                  0.5
         46         5        45                  0.5
         46         6        47                  0.5
         47         6        46                  0.5
         47         7        48                  0.5
         48         7        47                  0.5
         48         8        49                  0.5
         49         8        48                  0.5
         49         9        50                  0.5
         50         9        49                  0.5
         50        10        51                  0.5
         51        10        50                  0.5
         51        11        52                  0.5
         52        11        51                  0.5
         52        12        53                  0.5
         53        12        52                  0.5
         53        13        54                  0.5
         54        13        53                  0.5
         54        14        55                  0.5
         55        14        54                  0.5
         55        15        56                  0.5
         56        15        55                  0.5
         56        16        57                  0.5
         57        16        56                  0.5
         57        17        58                  0.5
         58        17        57                  0.5
         58        18        59                  0.5
         59        18        58                  0.5
         59        19        60                  0.5
         60        19        59                  0.5
         60        20        61                  0.5
         61        20        60                  0.5
         61        21        62                  0.5
         62        21        61                  0.5
         62        22        63                  0.5
         63        22        62                  0.5
         63        23        64                  0.5
         64        23        63                  0.5
         64        24        65                  0.5
         65        24        64                  0.5
         65        25        66                  0.5
         66        25        65                  0.5
         66        26        67                  0.5
         67        26        66                  0.5
         67        27        68                  0.5
         68        27        67                  0.5
         68        28        69                  0.5
         69        28        68                  0.5
         69        29        70                  0.5
         70        29        69                  0.5
         70        30        71                  0.5
         71        30        70                  0.5
         71        31        72                  0.5
         72        31        71                  0.5
         72        32        73                  0.5
         73        32        72                  0.5
         73        33        74                  0.5
         74        33        73                  0.5
         74        34        75                  0.5
         75        34        74                  0.5
         75        35        76                  0.5
         76        35        75                  0.5
         76        36        77                  0.5
         77        36        76                  0.5
         77        37        78                  0.5
         78        37        77                  0.5
         78        38        79                  0.5
         79        38        78                  0.5
         79        39        80                  0.5
         80        39        79                  0.5
         80        40        81  0.33333333333333331
         81        40        80  0.66666666666666674
         82        42        83                  0.5
         83        42        82                  0.5
         83        43        84                  0.5
         84        43        83                  0.5
         84        44        85                  0.5
         85        44        84                  0.5
         85        45        86                  0.5
         86        45        85                  0.5
         86        46        87                  0.5
         87        46        86                  0.5
         87        47        88                  0.5
         88        47        87                  0.5
         88        48        89                  0.5
         89        48        88                  0.5
         89        49        90                  0.5
         90        49        89                  0.5
         90        50        91                  0.5
         91        50        90                  0.5
         91        51        92                  0.5
         92        51        91                  0.5
         92        52        93                  0.5
         93        52        92                  0.5
         93        53        94                  0.5
         94        53        93                  0.5
         94        54        95                  0.5
         95        54        94                  0.5
         95        55        96                  0.5
         96        55        95                  0.5
         96        56        97                  0.5
         97        56        96                  0.5
         97        57        98                  0.5
         98        57        97                  0.5
         98        58        99                  0.5
         99        58        98                  0.5
         99        59       100                  0.5
        100        59        99                  0.5
        100        60       101                  0.5
        101        60       100                  0.5
        101        61       102                  0.5
        102        61       101                  0.5
        102        62       103                  0.5
        103        62       102                  0.5
        103        63       104                  0.5
        104        63       103                  0.5
        104        64       105                  0.5
        105        64       104                  0.5
        105        65       106                  0.5
        106        65       105                  0.5
        106        66       107                  0.5
        107        66       106                  0.5
        107        67       108                  0.5
        108        67       107                  0.5
        108        68       109                  0.5
        109        68       108                  0.5
        109        69       110                  0.5
        110        69       109                  0.5
        110        70       111                  0.5
        111        70       110                  0.5
        111        71       112                  0.5
        112        71       111                  0.5
        112        72       113                  0.5
        113        72       112                  0.5
        113        73       114                  0.5
        114        73       113                  0.5
        114        74       115                  0.5
        115        74       114                  0.5
        115        75       116                  0.5
        116        75       115                  0.5
        116        76       117                  0.5
        117        76       116                  0.5
        117        77       118                  0.5
        118        77       117                  0.5
        118        78       119                  0.5
        119        78       118                  0.5
        119        79       120                  0.5
        120        79       119                  0.5
        120        80       121                  0.5
        121        80       120                  0.5
        122        82       123  0.66666666666666663
        123        82       122  0.33333333333333337
        123        83       124                  0.5
        124        83       123                  0.5
        124        84       125                  0.5
        125        84       124                  0.5
        125        85       126                  0.5
        126        85       125                  0.5
        126        86       127                  0.5
        127        86       126                  0.5
        127        87       128                  0.5
        128        87       127                  0.5
        128        88       129                  0.5
        129        88       128                  0.5
        129        89       130                  0.5
        130        89       129                  0.5
        130        90       131                  0.5
        131        90       130                  0.5
        131        91       132                  0.5
        132        91       131                  0.5
        132        92       133                  0.5
        133        92       132                  0.5
        133        93       134                  0.5
        134        93       133                  0.5
        134        94       135                  0.5
        135        94       134                  0.5
        135        95       136                  0.5
        136        95       135                  0.5
        136        96       137                  0.5
        137        96       136                  0.5
        137        97       138                  0.5
        138        97       137                  0.5
        138        98       139                  0.5
        139        98       138                  0.5
        139        99       140                  0.5
        140        99       139                  0.5
        140       100       141                  0.5
        141       100       140                  0.5
        141       101       142                  0.5
        142       101       141                  0.5
        142       102       143                  0.5
        143       102       142                  0.5
        143       103       144                  0.5
        144       103       143                  0.5
        144       104       145                  0.5
        145       104       144                  0.5
        145       105       146                  0.5
        146       105       145                  0.5
        146       106       147                  0.5
        147       106       146                  0.5
        147       107       148                  0.5
        148       107       147                  0.5
        148       108       149                  0.5
        149       108       148                  0.5
        149       109       150                  0.5
        150       109       149                  0.5
        150       110       151                  0.5
        151       110       150                  0.5
        151       111       152                  0.5
        152       111       151                  0.5
        152       112       153                  0.5
        153       112       152                  0.5
        153       113       154                  0.5
        154       113       153                  0.5
        154       114       155                  0.5
        155       114       154                  0.5
        155       115       156                  0.5
        156       115       155                  0.5
        156       116       157                  0.5
        157       116       156                  0.5
        157       117       158                  0.5
        158       117       157                  0.5
        158       118       159                  0.5
        159       118       158                  0.5
        159       119       160                  0.5
        160       119       159                  0.5
        160       120       161                  0.5
        161       120       160                  0.5
        161       121       162  0.33333333333333331
        162       121       161  0.66666666666666674
        163       123       164                  0.5
        164       123       163                  0.5
        164       124       165                  0.5
        165       124       164                  0.5
        165       125       166                  0.5
        166       125       165                  0.5
        166       126       167                  0.5
        167       126       166                  0.5
        167       127       168                  0.5
        168       127       167                  0.5
        168       128       169                  0.5
        169       128       168                  0.5
        169       129       170                  0.5
        170       129       169                  0.5
        170       130       171                  0.5
        171       130       170                  0.5
        171       131       172                  0.5
        172       131       171                  0.5
        172       132       173                  0.5
        173       132       172                  0.5
        173       133       174                  0.5
        174       133       173                  0.5
        174       134       175                  0.5
        175       134       174                  0.5
        175       135       176                  0.5
        176       135       175                  0.5
        176       136       177                  0.5
        177       136       176                  0.5
        177       137       178                  0.5
        178       137       177                  0.5
        178       138       179                  0.5
        179       138       178                  0.5
        179       139       180                  0.5
        180       139       179                  0.5
        180       140       181                  0.5
        181       140       180                  0.5
        181       141       182                  0.5
        182       141       181                  0.5
        182       142       183                  0.5
        183       142       182                  0.5
        183       143       184                  0.5
        184       143       183                  0.5
        184       144       185                  0.5
        185       144       184                  0.5
        185       145       186                  0.5
        186       145       185                  0.5
        186       146       187                  0.5
        187       146       186                  0.5
        187       147       188                  0.5
        188       147       187                  0.5
        188       148       189                  0.5
        189       148       188                  0.5
        189       149       190                  0.5
        190       149       189                  0.5
        190       150       191                  0.5
        191       150       190                  0.5
        191       151       192                  0.5
        192       151       191                  0.5
        192       152       193                  0.5
        193       152       192                  0.5
        193       153       194                  0.5
        194       153       193                  0.5
        194       154       195                  0.5
        195       154       194                  0.5
        195       155       196                  0.5
        196       155       195                  0.5
        196       156       197                  0.5
        197       156       196                  0.5
        197       157       198                  0.5
        198       157       197                  0.5
        198       158       199                  0.5
        199       158       198                  0.5
        199       159       200                  0.5
        200       159       199                  0.5
        200       160       201                  0.5
        201       160       200                  0.5
        201       161       202                  0.5
        202       161       201                  0.5
        203       163       204  0.66666666666666663
        204       163       203  0.33333333333333337
        204       164       205                  0.5
        205       164       204                  0.5
        205       165       206                  0.5
        206       165       205                  0.5
        206       166       207                  0.5
        207       166       206                  0.5
        207       167       208                  0.5
        208       167       207                  0.5
        208       168       209                  0.5
        209       168       208                  0.5
        209       169       210                  0.5
        210       169       209                  0.5
        210       170       211                  0.5
        211       170       210                  0.5
        211       171       212                  0.5
        212       171       211                  0.5
        212       172       213                  0.5
        213       172       212                  0.5
        213       173       214                  0.5
        214       173       213                  0.5
        214       174       215                  0.5
        215       174       214                  0.5
        215       175       216                  0.5
        216       175       215                  0.5
        216       176       217                  0.5
        217       176       216                  0.5
        217       177       218                  0.5
        218       177       217                  0.5
        218       178       219                  0.5
        219       178       218                  0.5
        219       179       220                  0.5
        220       179       219                  0.5
        220       180       221                  0.5
        221       180       220                  0.5
        221       181       222                  0.5
        222       181       221                  0.5
        222       182       223                  0.5
        223       182       222                  0.5
        223       183       224                  0.5
        224       183       223                  0.5
        224       184       225                  0.5
        225       184       224                  0.5
        225       185       226                  0.5
        226       185       225                  0.5
        226       186       227                  0.5
        227       186       226                  0.5
        227       187       228                  0.5
        228       187       227                  0.5
        228       188       229                  0.5
        229       188       228                  0.5
        229       189       230                  0.5
        230       189       229                  0.5
        230       190       231                  0.5
        231       190       230                  0.5
        231       191       232                  0.5
        232       191       231                  0.5
        232       192       233                  0.5
        233       192       232                  0.5
        233       193       234                  0.5
        234       193       233                  0.5
        234       194       235                  0.5
        235       194       234                  0.5
        235       195       236                  0.5
        236       195       235                  0.5
        236       196       237                  0.5
        237       196       236                  0.5
        237       197       238                  0.5
        238       197       237                  0.5
        238       198       239                  0.5
        239       198       238                  0.5
        239       199       240                  0.5
        240       199       239                  0.5
        240       200       241                  0.5
        241       200       240                  0.5
        241       201       242                  0.5
        242       201       241                  0.5
        242       202       243  0.33333333333333331
        243       202       242  0.66666666666666674
        244       204       245                  0.5
        245       204       244                  0.5
        245       205       246                  0.5
        246       205       245                  0.5
        246       206       247                  0.5
        247       206       246                  0.5
        247       207       248                  0.5
        248       207       247                  0.5
        248       208       249                  0.5
        249       208       248                  0.5
        249       209       250                  0.5
        250       209       249                  0.5
        250       210       251                  0.5
        251       210       250                  0.5
        251       211       252                  0.5
        252       211       251                  0.5
        252       212       253                  0.5
        253       212       252                  0.5
        253       213       254                  0.5
        254       213       253                  0.5
        254       214       255                  0.5
        255       214       254                  0.5
        255       215       256                  0.5
        256       215       255                  0.5
        256       216       257                  0.5
        257       216       256                  0.5
        257       217       258                  0.5
        258       217       257                  0.5
        258       218       259                  0.5
        259       218       258                  0.5
        259       219       260                  0.5
        260       219       259                  0.5
        260       220       261                  0.5
        261       220       260                  0.5
        261       221       262                  0.5
        262       221       261                  0.5
        262       222       263                  0.5
        263       222       262                  0.5
        263       223       264                  0.5
        264       223       263                  0.5
        264       224       265                  0.5
        265       224       264                  0.5
        265       225       266                  0.5
        266       225       265                  0.5
        266       226       267                  0.5
        267       226       266                  0.5
        267       227       268                  0.5
        268       227       267                  0.5
        268       228       269                  0.5
        269       228       268                  0.5
        269       229       270                  0.5
        270       229       269                  0.5
        270       230       271                  0.5
        271       230       270                  0.5
        271       231       272                  0.5
        272       231       271                  0.5
        272       232       273                  0.5
        273       232       272                  0.5
        273       233       274                  0.5
        274       233       273                  0.5
        274       234       275                  0.5
        275       234       274                  0.5
        275       235       276                  0.5
        276       235       275                  0.5
        276       236       277                  0.5
        277       236       276                  0.5
        277       237       278                  0.5
        278       237       277                  0.5
        278       238       279                  0.5
        279       238       278                  0.5
        279       239       280                  0.5
        280       239       279                  0.5
        280       240       281                  0.5
        281       240       280                  0.5
        281       241       282                  0.5
        282       241       281                  0.5
        282       242       283                  0.5
        283       242       282                  0.5
        284       244       285  0.66666666666666663
        285       244       284  0.33333333333333337
        285       245       286                  0.5
        286       245       285                  0.5
        286       246       287                  0.5
        287       246       286                  0.5
        287       247       288                  0.5
        288       247       287                  0.5
        288       248       289                  0.5
        289       248       288                  0.5
        289       249       290                  0.5
        290       249       289                  0.5
        290       250       291                  0.5
        291       250       290                  0.5
        291       251       292                  0.5
        292       251       291                  0.5
        292       252       293                  0.5
        293       252       292                  0.5
        293       253       294                  0.5
        294       253       293                  0.5
        294       254       295                  0.5
        295       254       294                  0.5
        295       255       296                  0.5
        296       255       295                  0.5
        296       256       297                  0.5
        297       256       296                  0.5
        297       257       298                  0.5
        298       257       297                  0.5
        298       258       299                  0.5
        299       258       298                  0.5
        299       259       300                  0.5
        300       259       299                  0.5
        300       260       301                  0.5
        301       260       300                  0.5
        301       261       302                  0.5
        302       261       301                  0.5
        302       262       303                  0.5
        303       262       302                  0.5
        303       263       304                  0.5
        304       263       303                  0.5
        304       264       305                  0.5
        305       264       304                  0.5
        305       265       306                  0.5
        306       265       305                  0.5
        306       266       307                  0.5
        307       266       306                  0.5
        307       267       308                  0.5
        308       267       307                  0.5
        308       268       309                  0.5
        309       268       308                  0.5
        309       269       310                  0.5
        310       269       309                  0.5
        310       270       311                  0.5
        311       270       310                  0.5
        311       271       312                  0.5
        312       271       311                  0.5
        312       272       313                  0.5
        313       272       312                  0.5
        313       273       314                  0.5
        314       273       313                  0.5
        314       274       315                  0.5
        315       274       314                  0.5
        315       275       316                  0.5
        316       275       315                  0.5
        316       276       317                  0.5
        317       276       316                  0.5
        317       277       318                  0.5
        318       277       317                  0.5
        318       278       319                  0.5
        319       278       318                  0.5
        319       279       320                  0.5
        320       279       319                  0.5
        320       280       321                  0.5
        321       280       320                  0.5
        321       281       322                  0.5
        322       281       321                  0.5
        322       282       323                  0.5
        323       282       322                  0.5
        323       283       324  0.33333333333333331
        324       283       323  0.66666666666666674
END GNCDATA

