begin options
end options

BEGIN GRIDDATA
  strt 
    CONSTANT 600.
END GRIDDATA
