# Simulation name file for MODFLOW 6 prepared by MF5to6

BEGIN Options
END Options

BEGIN Timing
  TDIS6  uzfp2_mvr.tdis
END Timing

BEGIN Models
  GWF6  uzfp2_mvr.nam  uzfp2_mvr
END Models

BEGIN Exchanges
END Exchanges

BEGIN SOLUTIONGROUP 1
  MXITER  1
  IMS6  uzfp2_mvr.ims  uzfp2_mvr
END SOLUTIONGROUP
