# MVR6 input file, prepared by MF5to6 on 7/29/2016 at 16:49:22.

BEGIN Options
  PRINT_INPUT
  PRINT_FLOWS
END Options

BEGIN Dimensions
  MAXMVR  116
  MAXPACKAGES  2
END Dimensions

BEGIN Packages
  UZF_1
  SFR_1
END Packages

BEGIN Period 1
  UZF_1  1  SFR_1  1  FACTOR  1.000000000000000
  UZF_1  2  SFR_1  2  FACTOR  1.000000000000000
  UZF_1  3  SFR_1  1  FACTOR  1.000000000000000
  UZF_1  4  SFR_1  2  FACTOR  1.000000000000000
  UZF_1  5  SFR_1  3  FACTOR  1.000000000000000
  UZF_1  6  SFR_1  11  FACTOR  1.000000000000000
  UZF_1  7  SFR_1  12  FACTOR  1.000000000000000
  UZF_1  8  SFR_1  13  FACTOR  1.000000000000000
  UZF_1  9  SFR_1  2  FACTOR  1.000000000000000
  UZF_1  10  SFR_1  3  FACTOR  1.000000000000000
  UZF_1  11  SFR_1  4  FACTOR  1.000000000000000
  UZF_1  12  SFR_1  10  FACTOR  1.000000000000000
  UZF_1  13  SFR_1  11  FACTOR  1.000000000000000
  UZF_1  14  SFR_1  12  FACTOR  1.000000000000000
  UZF_1  15  SFR_1  13  FACTOR  1.000000000000000
  UZF_1  16  SFR_1  35  FACTOR  1.000000000000000
  UZF_1  17  SFR_1  35  FACTOR  1.000000000000000
  UZF_1  18  SFR_1  3  FACTOR  1.000000000000000
  UZF_1  19  SFR_1  5  FACTOR  1.000000000000000
  UZF_1  20  SFR_1  5  FACTOR  1.000000000000000
  UZF_1  21  SFR_1  5  FACTOR  1.000000000000000
  UZF_1  22  SFR_1  2  FACTOR  1.000000000000000
  UZF_1  23  SFR_1  13  FACTOR  1.000000000000000
  UZF_1  24  SFR_1  13  FACTOR  1.000000000000000
  UZF_1  25  SFR_1  35  FACTOR  1.000000000000000
  UZF_1  26  SFR_1  35  FACTOR  1.000000000000000
  UZF_1  27  SFR_1  34  FACTOR  1.000000000000000
  UZF_1  28  SFR_1  34  FACTOR  1.000000000000000
  UZF_1  29  SFR_1  6  FACTOR  1.000000000000000
  UZF_1  30  SFR_1  6  FACTOR  1.000000000000000
  UZF_1  31  SFR_1  2  FACTOR  1.000000000000000
  UZF_1  32  SFR_1  14  FACTOR  1.000000000000000
  UZF_1  33  SFR_1  17  FACTOR  1.000000000000000
  UZF_1  34  SFR_1  16  FACTOR  1.000000000000000
  UZF_1  35  SFR_1  35  FACTOR  1.000000000000000
  UZF_1  36  SFR_1  35  FACTOR  1.000000000000000
  UZF_1  37  SFR_1  34  FACTOR  1.000000000000000
  UZF_1  38  SFR_1  34  FACTOR  1.000000000000000
  UZF_1  39  SFR_1  33  FACTOR  1.000000000000000
  UZF_1  40  SFR_1  7  FACTOR  1.000000000000000
  UZF_1  41  SFR_1  2  FACTOR  1.000000000000000
  UZF_1  42  SFR_1  18  FACTOR  1.000000000000000
  UZF_1  43  SFR_1  17  FACTOR  1.000000000000000
  UZF_1  44  SFR_1  16  FACTOR  1.000000000000000
  UZF_1  45  SFR_1  35  FACTOR  1.000000000000000
  UZF_1  46  SFR_1  35  FACTOR  1.000000000000000
  UZF_1  47  SFR_1  34  FACTOR  1.000000000000000
  UZF_1  48  SFR_1  34  FACTOR  1.000000000000000
  UZF_1  49  SFR_1  33  FACTOR  1.000000000000000
  UZF_1  50  SFR_1  32  FACTOR  1.000000000000000
  UZF_1  51  SFR_1  20  FACTOR  1.000000000000000
  UZF_1  52  SFR_1  20  FACTOR  1.000000000000000
  UZF_1  53  SFR_1  20  FACTOR  1.000000000000000
  UZF_1  54  SFR_1  35  FACTOR  1.000000000000000
  UZF_1  55  SFR_1  34  FACTOR  1.000000000000000
  UZF_1  56  SFR_1  33  FACTOR  1.000000000000000
  UZF_1  57  SFR_1  33  FACTOR  1.000000000000000
  UZF_1  58  SFR_1  9  FACTOR  1.000000000000000
  UZF_1  59  SFR_1  21  FACTOR  1.000000000000000
  UZF_1  60  SFR_1  21  FACTOR  1.000000000000000
  UZF_1  61  SFR_1  21  FACTOR  1.000000000000000
  UZF_1  62  SFR_1  35  FACTOR  1.000000000000000
  UZF_1  63  SFR_1  34  FACTOR  1.000000000000000
  UZF_1  64  SFR_1  33  FACTOR  1.000000000000000
  UZF_1  65  SFR_1  32  FACTOR  1.000000000000000
  UZF_1  66  SFR_1  23  FACTOR  1.000000000000000
  UZF_1  67  SFR_1  23  FACTOR  1.000000000000000
  UZF_1  68  SFR_1  23  FACTOR  1.000000000000000
  UZF_1  69  SFR_1  23  FACTOR  1.000000000000000
  UZF_1  70  SFR_1  35  FACTOR  1.000000000000000
  UZF_1  71  SFR_1  34  FACTOR  1.000000000000000
  UZF_1  72  SFR_1  33  FACTOR  1.000000000000000
  UZF_1  73  SFR_1  32  FACTOR  1.000000000000000
  UZF_1  74  SFR_1  24  FACTOR  1.000000000000000
  UZF_1  75  SFR_1  24  FACTOR  1.000000000000000
  UZF_1  76  SFR_1  24  FACTOR  1.000000000000000
  UZF_1  77  SFR_1  24  FACTOR  1.000000000000000
  UZF_1  78  SFR_1  24  FACTOR  1.000000000000000
  UZF_1  79  SFR_1  35  FACTOR  1.000000000000000
  UZF_1  80  SFR_1  34  FACTOR  1.000000000000000
  UZF_1  81  SFR_1  33  FACTOR  1.000000000000000
  UZF_1  82  SFR_1  32  FACTOR  1.000000000000000
  UZF_1  83  SFR_1  31  FACTOR  1.000000000000000
  UZF_1  84  SFR_1  25  FACTOR  1.000000000000000
  UZF_1  85  SFR_1  6  FACTOR  1.000000000000000
  UZF_1  86  SFR_1  7  FACTOR  1.000000000000000
  UZF_1  87  SFR_1  36  FACTOR  1.000000000000000
  UZF_1  88  SFR_1  35  FACTOR  1.000000000000000
  UZF_1  89  SFR_1  34  FACTOR  1.000000000000000
  UZF_1  90  SFR_1  33  FACTOR  1.000000000000000
  UZF_1  91  SFR_1  32  FACTOR  1.000000000000000
  UZF_1  92  SFR_1  31  FACTOR  1.000000000000000
  UZF_1  93  SFR_1  26  FACTOR  1.000000000000000
  UZF_1  94  SFR_1  7  FACTOR  1.000000000000000
  UZF_1  95  SFR_1  7  FACTOR  1.000000000000000
  UZF_1  96  SFR_1  36  FACTOR  1.000000000000000
  UZF_1  97  SFR_1  35  FACTOR  1.000000000000000
  UZF_1  98  SFR_1  34  FACTOR  1.000000000000000
  UZF_1  99  SFR_1  33  FACTOR  1.000000000000000
  UZF_1  100  SFR_1  32  FACTOR  1.000000000000000
  UZF_1  101  SFR_1  31  FACTOR  1.000000000000000
  UZF_1  102  SFR_1  30  FACTOR  1.000000000000000
  UZF_1  103  SFR_1  29  FACTOR  1.000000000000000
  UZF_1  104  SFR_1  7  FACTOR  1.000000000000000
  UZF_1  105  SFR_1  35  FACTOR  1.000000000000000
  UZF_1  106  SFR_1  34  FACTOR  1.000000000000000
  UZF_1  107  SFR_1  33  FACTOR  1.000000000000000
  UZF_1  108  SFR_1  32  FACTOR  1.000000000000000
  UZF_1  109  SFR_1  31  FACTOR  1.000000000000000
  UZF_1  110  SFR_1  7  FACTOR  1.000000000000000
  UZF_1  111  SFR_1  7  FACTOR  1.000000000000000
  UZF_1  112  SFR_1  28  FACTOR  1.000000000000000
  UZF_1  113  SFR_1  35  FACTOR  1.000000000000000
  UZF_1  114  SFR_1  34  FACTOR  1.000000000000000
  UZF_1  115  SFR_1  33  FACTOR  1.000000000000000
  UZF_1  116  SFR_1  32  FACTOR  1.000000000000000
END Period
