# UZF8 input file, prepared by MF5to6 on 7/29/2016 at 16:49:22.

BEGIN Options
  PRINT_INPUT
  PRINT_FLOWS
  SAVE_FLOWS
  SIMULATE_ET
  LINEAR_GWET
  SIMULATE_GWSEEP
  MOVER
END Options

BEGIN Dimensions
  NUZFCELLS  116
  NTRAILWAVES  25
  NWAVESETS  20
END Dimensions

BEGIN PACKAGEDATA
#no  cellid lflg vcon surfdep         vks              thtr             thts             thti              eps
  1  1  1  1  1  0    1.0000000       0.10000000E-05   0.10000000       0.30000000       0.10000000        3.5000000    
  2  1  1  2  1  0    1.0000000       0.10000000E-05   0.10000000       0.30000000       0.10000000        3.5000000    
  3  1  2  1  1  0    1.0000000       0.10000000E-05   0.20000000       0.30000000       0.20000000        3.5000000    
  4  1  2  2  1  0    1.0000000       0.10000000E-05   0.10000000       0.30000000       0.10000000        3.5000000    
  5  1  2  3  1  0    1.0000000       0.10000000E-05   0.10000000       0.30000000       0.10000000        3.5000000    
  6  1  2  6  1  0    1.0000000       0.10000000E-05   0.20000000       0.30000000       0.20000000        3.5000000    
  7  1  2  7  1  0    1.0000000       0.10000000E-05   0.20000000       0.30000000       0.20000000        3.5000000    
  8  1  2  8  1  0    1.0000000       0.10000000E-05   0.20000000       0.30000000       0.20000000        3.5000000    
  9  1  3  2  1  0    1.0000000       0.10000000E-05   0.20000000       0.30000000       0.20000000        3.5000000    
 10  1  3  3  1  0    1.0000000       0.10000000E-05   0.10000000       0.30000000       0.10000000        3.5000000    
 11  1  3  4  1  0    1.0000000       0.10000000E-05   0.10000000       0.30000000       0.10000000        3.5000000    
 12  1  3  5  1  0    1.0000000       0.10000000E-05   0.20000000       0.30000000       0.20000000        3.5000000    
 13  1  3  6  1  0    1.0000000       0.10000000E-05   0.20000000       0.30000000       0.20000000        3.5000000    
 14  1  3  7  1  0    1.0000000       0.10000000E-05   0.20000000       0.30000000       0.20000000        3.5000000    
 15  1  3  8  1  0    1.0000000       0.10000000E-05   0.20000000       0.30000000       0.20000000        3.5000000    
 16  1  4  1  1  0    1.0000000       0.10000000E-05   0.20000000       0.30000000       0.20000000        3.5000000    
 17  1  4  2  1  0    1.0000000       0.10000000E-05   0.20000000       0.30000000       0.20000000        3.5000000    
 18  1  4  3  1  0    1.0000000       0.10000000E-05   0.20000000       0.30000000       0.20000000        3.5000000    
 19  1  4  4  1  0    1.0000000       0.10000000E-05   0.10000000       0.30000000       0.10000000        3.5000000    
 20  1  4  5  1  0    1.0000000       0.10000000E-05   0.10000000       0.30000000       0.10000000        3.5000000    
 21  1  4  6  1  0    1.0000000       0.10000000E-05   0.10000000       0.30000000       0.10000000        3.5000000    
 22  1  4  7  1  0    1.0000000       0.10000000E-05   0.20000000       0.30000000       0.20000000        3.5000000    
 23  1  4  8  1  0    1.0000000       0.10000000E-05   0.20000000       0.30000000       0.20000000        3.5000000    
 24  1  4  9  1  0    1.0000000       0.10000000E-05   0.20000000       0.30000000       0.20000000        3.5000000    
 25  1  5  1  1  0    1.0000000       0.10000000E-05   0.20000000       0.30000000       0.20000000        3.5000000    
 26  1  5  2  1  0    1.0000000       0.10000000E-05   0.20000000       0.30000000       0.20000000        3.5000000    
 27  1  5  3  1  0    1.0000000       0.10000000E-05   0.20000000       0.30000000       0.20000000        3.5000000    
 28  1  5  4  1  0    1.0000000       0.10000000E-05   0.10000000       0.30000000       0.10000000        3.5000000    
 29  1  5  5  1  0    1.0000000       0.10000000E-05   0.10000000       0.30000000       0.10000000        3.5000000    
 30  1  5  6  1  0    1.0000000       0.10000000E-05   0.10000000       0.30000000       0.10000000        3.5000000    
 31  1  5  7  1  0    1.0000000       0.10000000E-05   0.10000000       0.30000000       0.10000000        3.5000000    
 32  1  5  8  1  0    1.0000000       0.10000000E-05   0.10000000       0.30000000       0.10000000        3.5000000    
 33  1  5  9  1  0    1.0000000       0.10000000E-05   0.10000000       0.30000000       0.10000000        3.5000000    
 34  1  5  10  1  0    1.0000000       0.10000000E-05   0.10000000       0.30000000       0.10000000        3.5000000    
 35  1  6  1  1  0    1.0000000       0.10000000E-05   0.20000000       0.30000000       0.20000000        3.5000000    
 36  1  6  2  1  0    1.0000000       0.10000000E-05   0.20000000       0.30000000       0.20000000        3.5000000    
 37  1  6  3  1  0    1.0000000       0.10000000E-05   0.20000000       0.30000000       0.20000000        3.5000000    
 38  1  6  4  1  0    1.0000000       0.10000000E-05   0.10000000       0.30000000       0.10000000        3.5000000    
 39  1  6  5  1  0    1.0000000       0.10000000E-05   0.10000000       0.30000000       0.10000000        3.5000000    
 40  1  6  6  1  0    1.0000000       0.10000000E-05   0.10000000       0.30000000       0.10000000        3.5000000    
 41  1  6  7  1  0    1.0000000       0.10000000E-05   0.10000000       0.30000000       0.10000000        3.5000000    
 42  1  6  8  1  0    1.0000000       0.10000000E-05   0.10000000       0.30000000       0.10000000        3.5000000    
 43  1  6  9  1  0    1.0000000       0.10000000E-05   0.20000000       0.30000000       0.20000000        3.5000000    
 44  1  6  10  1  0    1.0000000       0.10000000E-05   0.20000000       0.30000000       0.20000000        3.5000000    
 45  1  7  1  1  0    1.0000000       0.10000000E-05   0.20000000       0.30000000       0.20000000        3.5000000    
 46  1  7  2  1  0    1.0000000       0.10000000E-05   0.20000000       0.30000000       0.20000000        3.5000000    
 47  1  7  3  1  0    1.0000000       0.10000000E-05   0.20000000       0.30000000       0.20000000        3.5000000    
 48  1  7  4  1  0    1.0000000       0.10000000E-05   0.10000000       0.30000000       0.10000000        3.5000000    
 49  1  7  5  1  0    1.0000000       0.10000000E-05   0.10000000       0.30000000       0.10000000        3.5000000    
 50  1  7  6  1  0    1.0000000       0.10000000E-05   0.10000000       0.30000000       0.10000000        3.5000000    
 51  1  7  7  1  0    1.0000000       0.10000000E-05   0.10000000       0.30000000       0.10000000        3.5000000    
 52  1  7  8  1  0    1.0000000       0.10000000E-05   0.10000000       0.30000000       0.10000000        3.5000000    
 53  1  7  9  1  0    1.0000000       0.10000000E-05   0.20000000       0.30000000       0.20000000        3.5000000    
 54  1  8  2  1  0    1.0000000       0.10000000E-05   0.20000000       0.30000000       0.20000000        3.5000000    
 55  1  8  3  1  0    1.0000000       0.10000000E-05   0.20000000       0.30000000       0.20000000        3.5000000    
 56  1  8  4  1  0    1.0000000       0.10000000E-05   0.10000000       0.30000000       0.10000000        3.5000000    
 57  1  8  5  1  0    1.0000000       0.10000000E-05   0.10000000       0.30000000       0.10000000        3.5000000    
 58  1  8  6  1  0    1.0000000       0.10000000E-05   0.10000000       0.30000000       0.10000000        3.5000000    
 59  1  8  7  1  0    1.0000000       0.10000000E-05   0.10000000       0.30000000       0.10000000        3.5000000    
 60  1  8  8  1  0    1.0000000       0.10000000E-05   0.20000000       0.30000000       0.20000000        3.5000000    
 61  1  8  9  1  0    1.0000000       0.10000000E-05   0.20000000       0.30000000       0.20000000        3.5000000    
 62  1  9  2  1  0    1.0000000       0.10000000E-05   0.20000000       0.30000000       0.20000000        3.5000000    
 63  1  9  3  1  0    1.0000000       0.10000000E-05   0.20000000       0.30000000       0.20000000        3.5000000    
 64  1  9  4  1  0    1.0000000       0.10000000E-05   0.10000000       0.30000000       0.10000000        3.5000000    
 65  1  9  5  1  0    1.0000000       0.10000000E-05   0.10000000       0.30000000       0.10000000        3.5000000    
 66  1  9  6  1  0    1.0000000       0.10000000E-05   0.10000000       0.30000000       0.10000000        3.5000000    
 67  1  9  7  1  0    1.0000000       0.10000000E-05   0.10000000       0.30000000       0.10000000        3.5000000    
 68  1  9  8  1  0    1.0000000       0.10000000E-05   0.20000000       0.30000000       0.20000000        3.5000000    
 69  1  9  9  1  0    1.0000000       0.10000000E-05   0.20000000       0.30000000       0.20000000        3.5000000    
 70  1  10  2  1  0    1.0000000       0.10000000E-05   0.20000000       0.30000000       0.20000000        3.5000000    
 71  1  10  3  1  0    1.0000000       0.10000000E-05   0.20000000       0.30000000       0.20000000        3.5000000    
 72  1  10  4  1  0    1.0000000       0.10000000E-05   0.10000000       0.30000000       0.10000000        3.5000000    
 73  1  10  5  1  0    1.0000000       0.10000000E-05   0.10000000       0.30000000       0.10000000        3.5000000    
 74  1  10  6  1  0    1.0000000       0.10000000E-05   0.10000000       0.30000000       0.10000000        3.5000000    
 75  1  10  7  1  0    1.0000000       0.10000000E-05   0.10000000       0.30000000       0.10000000        3.5000000    
 76  1  10  8  1  0    1.0000000       0.10000000E-05   0.20000000       0.30000000       0.20000000        3.5000000    
 77  1  10  9  1  0    1.0000000       0.10000000E-05   0.20000000       0.30000000       0.20000000        3.5000000    
 78  1  10  10  1  0    1.0000000       0.10000000E-05   0.20000000       0.30000000       0.20000000        3.5000000    
 79  1  11  2  1  0    1.0000000       0.10000000E-05   0.20000000       0.30000000       0.20000000        3.5000000    
 80  1  11  3  1  0    1.0000000       0.10000000E-05   0.20000000       0.30000000       0.20000000        3.5000000    
 81  1  11  4  1  0    1.0000000       0.10000000E-05   0.10000000       0.30000000       0.10000000        3.5000000    
 82  1  11  5  1  0    1.0000000       0.10000000E-05   0.10000000       0.30000000       0.10000000        3.5000000    
 83  1  11  6  1  0    1.0000000       0.10000000E-05   0.10000000       0.30000000       0.10000000        3.5000000    
 84  1  11  7  1  0    1.0000000       0.10000000E-05   0.10000000       0.30000000       0.10000000        3.5000000    
 85  1  11  8  1  0    1.0000000       0.10000000E-05   0.20000000       0.30000000       0.20000000        3.5000000    
 86  1  11  9  1  0    1.0000000       0.10000000E-05   0.20000000       0.30000000       0.20000000        3.5000000    
 87  1  12  1  1  0    1.0000000       0.10000000E-05   0.20000000       0.30000000       0.20000000        3.5000000    
 88  1  12  2  1  0    1.0000000       0.10000000E-05   0.20000000       0.30000000       0.20000000        3.5000000    
 89  1  12  3  1  0    1.0000000       0.10000000E-05   0.10000000       0.30000000       0.10000000        3.5000000    
 90  1  12  4  1  0    1.0000000       0.10000000E-05   0.10000000       0.30000000       0.10000000        3.5000000    
 91  1  12  5  1  0    1.0000000       0.10000000E-05   0.10000000       0.30000000       0.10000000        3.5000000    
 92  1  12  6  1  0    1.0000000       0.10000000E-05   0.10000000       0.30000000       0.10000000        3.5000000    
 93  1  12  7  1  0    1.0000000       0.10000000E-05   0.10000000       0.30000000       0.10000000        3.5000000    
 94  1  12  8  1  0    1.0000000       0.10000000E-05   0.20000000       0.30000000       0.20000000        3.5000000    
 95  1  12  9  1  0    1.0000000       0.10000000E-05   0.20000000       0.30000000       0.20000000        3.5000000    
 96  1  13  1  1  0    1.0000000       0.10000000E-05   0.10000000       0.30000000       0.10000000        3.5000000    
 97  1  13  2  1  0    1.0000000       0.10000000E-05   0.10000000       0.30000000       0.10000000        3.5000000    
 98  1  13  3  1  0    1.0000000       0.10000000E-05   0.10000000       0.30000000       0.10000000        3.5000000    
 99  1  13  4  1  0    1.0000000       0.10000000E-05   0.10000000       0.30000000       0.10000000        3.5000000    
100  1  13  5  1  0    1.0000000       0.10000000E-05   0.10000000       0.30000000       0.10000000        3.5000000    
101  1  13  6  1  0    1.0000000       0.10000000E-05   0.10000000       0.30000000       0.10000000        3.5000000    
102  1  13  7  1  0    1.0000000       0.10000000E-05   0.10000000       0.30000000       0.10000000        3.5000000    
103  1  13  8  1  0    1.0000000       0.10000000E-05   0.10000000       0.30000000       0.10000000        3.5000000    
104  1  13  9  1  0    1.0000000       0.10000000E-05   0.10000000       0.30000000       0.10000000        3.5000000    
105  1  14  2  1  0    1.0000000       0.10000000E-05   0.20000000       0.30000000       0.20000000        3.5000000    
106  1  14  3  1  0    1.0000000       0.10000000E-05   0.20000000       0.30000000       0.20000000        3.5000000    
107  1  14  4  1  0    1.0000000       0.10000000E-05   0.20000000       0.30000000       0.20000000        3.5000000    
108  1  14  5  1  0    1.0000000       0.10000000E-05   0.20000000       0.30000000       0.20000000        3.5000000    
109  1  14  6  1  0    1.0000000       0.10000000E-05   0.20000000       0.30000000       0.20000000        3.5000000    
110  1  14  7  1  0    1.0000000       0.10000000E-05   0.20000000       0.30000000       0.20000000        3.5000000    
111  1  14  8  1  0    1.0000000       0.10000000E-05   0.20000000       0.30000000       0.20000000        3.5000000    
112  1  14  9  1  0    1.0000000       0.10000000E-05   0.10000000       0.30000000       0.10000000        3.5000000    
113  1  15  3  1  0    1.0000000       0.10000000E-05   0.20000000       0.30000000       0.20000000        3.5000000    
114  1  15  4  1  0    1.0000000       0.10000000E-05   0.20000000       0.30000000       0.20000000        3.5000000    
115  1  15  5  1  0    1.0000000       0.10000000E-05   0.20000000       0.30000000       0.20000000        3.5000000    
116  1  15  6  1  0    1.0000000       0.10000000E-05   0.20000000       0.30000000       0.20000000        3.5000000    
END PACKAGEDATA

BEGIN	PERIOD	1					
#	  id	finf	pet	extdp	extwc		
  	1	1.00E-09	5.00E-08	15	0.100005	0.0	0.0	0.0
  	2	2.00E-09	5.00E-08	15	0.100005	0.0	0.0	0.0
  	3	2.00E-09	5.00E-08	15	0.20001	0.0	0.0	0.0
  	4	1.00E-09	5.00E-08	15	0.100005	0.0	0.0	0.0
  	5	2.00E-09	5.00E-08	15	0.100005	0.0	0.0	0.0
  	6	8.00E-09	5.00E-08	15	0.20001	0.0	0.0	0.0
  	7	8.00E-09	5.00E-08	15	0.20001	0.0	0.0	0.0
  	8	5.00E-09	5.00E-08	15	0.20001	0.0	0.0	0.0
  	9	5.00E-09	5.00E-08	15	0.20001	0.0	0.0	0.0
  	10	1.00E-09	5.00E-08	15	0.100005	0.0	0.0	0.0
  	11	1.00E-09	5.00E-08	15	0.100005	0.0	0.0	0.0
  	12	8.00E-09	5.00E-08	15	0.20001	0.0	0.0	0.0
  	13	8.00E-09	5.00E-08	15	0.20001	0.0	0.0	0.0
  	14	5.00E-09	5.00E-08	15	0.20001	0.0	0.0	0.0
  	15	5.00E-09	5.00E-08	15	0.20001	0.0	0.0	0.0
  	16	8.00E-09	5.00E-08	15	0.20001	0.0	0.0	0.0
  	17	5.00E-09	5.00E-08	15	0.20001	0.0	0.0	0.0
  	18	1.00E-09	5.00E-08	15	0.20001	0.0	0.0	0.0
  	19	1.00E-09	5.00E-08	15	0.100005	0.0	0.0	0.0
  	20	1.00E-09	5.00E-08	15	0.100005	0.0	0.0	0.0
  	21	1.00E-09	5.00E-08	15	0.100005	0.0	0.0	0.0
  	22	1.00E-09	5.00E-08	15	0.20001	0.0	0.0	0.0
  	23	1.00E-09	5.00E-08	15	0.20001	0.0	0.0	0.0
  	24	2.00E-09	5.00E-08	15	0.20001	0.0	0.0	0.0
  	25	8.00E-09	5.00E-08	15	0.20001	0.0	0.0	0.0
  	26	5.00E-09	5.00E-08	15	0.20001	0.0	0.0	0.0
  	27	1.00E-09	5.00E-08	15	0.20001	0.0	0.0	0.0
  	28	1.00E-09	5.00E-08	15	0.100005	0.0	0.0	0.0
  	29	1.00E-09	5.00E-08	15	0.100005	0.0	0.0	0.0
  	30	1.00E-09	5.00E-08	15	0.100005	0.0	0.0	0.0
  	31	1.00E-09	5.00E-08	15	0.100005	0.0	0.0	0.0
  	32	1.00E-09	5.00E-08	15	0.100005	0.0	0.0	0.0
  	33	1.00E-09	5.00E-08	15	0.100005	0.0	0.0	0.0
  	34	1.00E-09	5.00E-08	15	0.100005	0.0	0.0	0.0
  	35	8.00E-09	5.00E-08	15	0.20001	0.0	0.0	0.0
  	36	5.00E-09	5.00E-08	15	0.20001	0.0	0.0	0.0
  	37	5.00E-09	5.00E-08	15	0.20001	0.0	0.0	0.0
  	38	2.00E-09	5.00E-08	15	0.100005	0.0	0.0	0.0
  	39	2.00E-09	5.00E-08	15	0.100005	0.0	0.0	0.0
  	40	1.00E-09	5.00E-08	15	0.100005	0.0	0.0	0.0
  	41	1.00E-09	5.00E-08	15	0.100005	0.0	0.0	0.0
  	42	1.00E-09	5.00E-08	15	0.100005	0.0	0.0	0.0
  	43	1.00E-09	5.00E-08	15	0.20001	0.0	0.0	0.0
  	44	5.00E-09	5.00E-08	15	0.20001	0.0	0.0	0.0
  	45	8.00E-09	5.00E-08	15	0.20001	0.0	0.0	0.0
  	46	5.00E-09	5.00E-08	15	0.20001	0.0	0.0	0.0
  	47	5.00E-09	5.00E-08	15	0.20001	0.0	0.0	0.0
  	48	2.00E-09	5.00E-08	15	0.100005	0.0	0.0	0.0
  	49	2.00E-09	5.00E-08	15	0.100005	0.0	0.0	0.0
  	50	1.00E-09	5.00E-08	15	0.100005	0.0	0.0	0.0
  	51	1.00E-09	5.00E-08	15	0.100005	0.0	0.0	0.0
  	52	2.00E-09	5.00E-08	15	0.100005	0.0	0.0	0.0
  	53	2.00E-09	5.00E-08	15	0.20001	0.0	0.0	0.0
  	54	5.00E-09	5.00E-08	15	0.20001	0.0	0.0	0.0
  	55	5.00E-09	5.00E-08	15	0.20001	0.0	0.0	0.0
  	56	2.00E-09	5.00E-08	15	0.100005	0.0	0.0	0.0
  	57	2.00E-09	5.00E-08	15	0.100005	0.0	0.0	0.0
  	58	1.00E-09	5.00E-08	15	0.100005	0.0	0.0	0.0
  	59	1.00E-09	5.00E-08	15	0.100005	0.0	0.0	0.0
  	60	2.00E-09	5.00E-08	15	0.20001	0.0	0.0	0.0
  	61	5.00E-09	5.00E-08	15	0.20001	0.0	0.0	0.0
  	62	5.00E-09	5.00E-08	15	0.20001	0.0	0.0	0.0
  	63	5.00E-09	5.00E-08	15	0.20001	0.0	0.0	0.0
  	64	2.00E-09	5.00E-08	15	0.100005	0.0	0.0	0.0
  	65	2.00E-09	5.00E-08	15	0.100005	0.0	0.0	0.0
  	66	1.00E-09	5.00E-08	15	0.100005	0.0	0.0	0.0
  	67	1.00E-09	5.00E-08	15	0.100005	0.0	0.0	0.0
  	68	2.00E-09	5.00E-08	15	0.20001	0.0	0.0	0.0
  	69	5.00E-09	5.00E-08	15	0.20001	0.0	0.0	0.0
  	70	5.00E-09	5.00E-08	15	0.20001	0.0	0.0	0.0
  	71	5.00E-09	5.00E-08	15	0.20001	0.0	0.0	0.0
  	72	2.00E-09	5.00E-08	15	0.100005	0.0	0.0	0.0
  	73	2.00E-09	5.00E-08	15	0.100005	0.0	0.0	0.0
  	74	1.00E-09	5.00E-08	15	0.100005	0.0	0.0	0.0
  	75	1.00E-09	5.00E-08	15	0.100005	0.0	0.0	0.0
  	76	2.00E-09	5.00E-08	15	0.20001	0.0	0.0	0.0
  	77	5.00E-09	5.00E-08	15	0.20001	0.0	0.0	0.0
  	78	8.00E-09	5.00E-08	15	0.20001	0.0	0.0	0.0
  	79	1.00E-09	5.00E-08	15	0.20001	0.0	0.0	0.0
  	80	1.00E-09	5.00E-08	15	0.20001	0.0	0.0	0.0
  	81	1.00E-09	5.00E-08	15	0.100005	0.0	0.0	0.0
  	82	1.00E-09	5.00E-08	15	0.100005	0.0	0.0	0.0
  	83	1.00E-09	5.00E-08	15	0.100005	0.0	0.0	0.0
  	84	1.00E-09	5.00E-08	15	0.100005	0.0	0.0	0.0
  	85	2.00E-09	5.00E-08	15	0.20001	0.0	0.0	0.0
  	86	5.00E-09	5.00E-08	15	0.20001	0.0	0.0	0.0
  	87	1.00E-09	5.00E-08	15	0.20001	0.0	0.0	0.0
  	88	1.00E-09	5.00E-08	15	0.20001	0.0	0.0	0.0
  	89	1.00E-09	5.00E-08	15	0.100005	0.0	0.0	0.0
  	90	1.00E-09	5.00E-08	15	0.100005	0.0	0.0	0.0
  	91	1.00E-09	5.00E-08	15	0.100005	0.0	0.0	0.0
  	92	1.00E-09	5.00E-08	15	0.100005	0.0	0.0	0.0
  	93	1.00E-09	5.00E-08	15	0.100005	0.0	0.0	0.0
  	94	1.00E-09	5.00E-08	15	0.20001	0.0	0.0	0.0
  	95	2.00E-09	5.00E-08	15	0.20001	0.0	0.0	0.0
  	96	1.00E-09	5.00E-08	15	0.100005	0.0	0.0	0.0
  	97	1.00E-09	5.00E-08	15	0.100005	0.0	0.0	0.0
  	98	2.00E-09	5.00E-08	15	0.100005	0.0	0.0	0.0
  	99	2.00E-09	5.00E-08	15	0.100005	0.0	0.0	0.0
  	100	2.00E-09	5.00E-08	15	0.100005	0.0	0.0	0.0
  	101	2.00E-09	5.00E-08	15	0.100005	0.0	0.0	0.0
  	102	2.00E-09	5.00E-08	15	0.100005	0.0	0.0	0.0
  	103	1.00E-09	5.00E-08	15	0.100005	0.0	0.0	0.0
  	104	1.00E-09	5.00E-08	15	0.100005	0.0	0.0	0.0
  	105	2.00E-09	5.00E-08	15	0.20001	0.0	0.0	0.0
  	106	5.00E-09	5.00E-08	15	0.20001	0.0	0.0	0.0
  	107	5.00E-09	5.00E-08	15	0.20001	0.0	0.0	0.0
  	108	5.00E-09	5.00E-08	15	0.20001	0.0	0.0	0.0
  	109	5.00E-09	5.00E-08	15	0.20001	0.0	0.0	0.0
  	110	5.00E-09	5.00E-08	15	0.20001	0.0	0.0	0.0
  	111	2.00E-09	5.00E-08	15	0.20001	0.0	0.0	0.0
  	112	1.00E-09	5.00E-08	15	0.100005	0.0	0.0	0.0
  	113	8.00E-09	5.00E-08	15	0.20001	0.0	0.0	0.0
  	114	8.00E-09	5.00E-08	15	0.20001	0.0	0.0	0.0
  	115	8.00E-09	5.00E-08	15	0.20001	0.0	0.0	0.0
  	116	8.00E-09	5.00E-08	15	0.20001	0.0	0.0	0.0
END	PERIOD							
								
BEGIN	PERIOD	2				
#  id	finf	pet	extdp	extwc			
  	1	8.00E-09	5.00E-08	15	0.100005	0.0	0.0	0.0
  	2	1.60E-08	5.00E-08	15	0.100005	0.0	0.0	0.0
  	3	1.60E-08	5.00E-08	15	0.20001	0.0	0.0	0.0
  	4	8.00E-09	5.00E-08	15	0.100005	0.0	0.0	0.0
  	5	1.60E-08	5.00E-08	15	0.100005	0.0	0.0	0.0
  	6	6.40E-08	5.00E-08	15	0.20001	0.0	0.0	0.0
  	7	6.40E-08	5.00E-08	15	0.20001	0.0	0.0	0.0
  	8	4.00E-08	5.00E-08	15	0.20001	0.0	0.0	0.0
  	9	4.00E-08	5.00E-08	15	0.20001	0.0	0.0	0.0
  	10	8.00E-09	5.00E-08	15	0.100005	0.0	0.0	0.0
  	11	8.00E-09	5.00E-08	15	0.100005	0.0	0.0	0.0
  	12	6.40E-08	5.00E-08	15	0.20001	0.0	0.0	0.0
  	13	6.40E-08	5.00E-08	15	0.20001	0.0	0.0	0.0
  	14	4.00E-08	5.00E-08	15	0.20001	0.0	0.0	0.0
  	15	4.00E-08	5.00E-08	15	0.20001	0.0	0.0	0.0
  	16	6.40E-08	5.00E-08	15	0.20001	0.0	0.0	0.0
  	17	4.00E-08	5.00E-08	15	0.20001	0.0	0.0	0.0
  	18	8.00E-09	5.00E-08	15	0.20001	0.0	0.0	0.0
  	19	8.00E-09	5.00E-08	15	0.100005	0.0	0.0	0.0
  	20	8.00E-09	5.00E-08	15	0.100005	0.0	0.0	0.0
  	21	8.00E-09	5.00E-08	15	0.100005	0.0	0.0	0.0
  	22	8.00E-09	5.00E-08	15	0.20001	0.0	0.0	0.0
  	23	8.00E-09	5.00E-08	15	0.20001	0.0	0.0	0.0
  	24	1.60E-08	5.00E-08	15	0.20001	0.0	0.0	0.0
  	25	6.40E-08	5.00E-08	15	0.20001	0.0	0.0	0.0
  	26	4.00E-08	5.00E-08	15	0.20001	0.0	0.0	0.0
  	27	8.00E-09	5.00E-08	15	0.20001	0.0	0.0	0.0
  	28	8.00E-09	5.00E-08	15	0.100005	0.0	0.0	0.0
  	29	8.00E-09	5.00E-08	15	0.100005	0.0	0.0	0.0
  	30	8.00E-09	5.00E-08	15	0.100005	0.0	0.0	0.0
  	31	8.00E-09	5.00E-08	15	0.100005	0.0	0.0	0.0
  	32	8.00E-09	5.00E-08	15	0.100005	0.0	0.0	0.0
  	33	8.00E-09	5.00E-08	15	0.100005	0.0	0.0	0.0
  	34	8.00E-09	5.00E-08	15	0.100005	0.0	0.0	0.0
  	35	6.40E-08	5.00E-08	15	0.20001	0.0	0.0	0.0
  	36	4.00E-08	5.00E-08	15	0.20001	0.0	0.0	0.0
  	37	4.00E-08	5.00E-08	15	0.20001	0.0	0.0	0.0
  	38	1.60E-08	5.00E-08	15	0.100005	0.0	0.0	0.0
  	39	1.60E-08	5.00E-08	15	0.100005	0.0	0.0	0.0
  	40	8.00E-09	5.00E-08	15	0.100005	0.0	0.0	0.0
  	41	8.00E-09	5.00E-08	15	0.100005	0.0	0.0	0.0
  	42	8.00E-09	5.00E-08	15	0.100005	0.0	0.0	0.0
  	43	8.00E-09	5.00E-08	15	0.20001	0.0	0.0	0.0
  	44	4.00E-08	5.00E-08	15	0.20001	0.0	0.0	0.0
  	45	6.40E-08	5.00E-08	15	0.20001	0.0	0.0	0.0
  	46	4.00E-08	5.00E-08	15	0.20001	0.0	0.0	0.0
  	47	4.00E-08	5.00E-08	15	0.20001	0.0	0.0	0.0
  	48	1.60E-08	5.00E-08	15	0.100005	0.0	0.0	0.0
  	49	1.60E-08	5.00E-08	15	0.100005	0.0	0.0	0.0
  	50	8.00E-09	5.00E-08	15	0.100005	0.0	0.0	0.0
  	51	8.00E-09	5.00E-08	15	0.100005	0.0	0.0	0.0
  	52	1.60E-08	5.00E-08	15	0.100005	0.0	0.0	0.0
  	53	1.60E-08	5.00E-08	15	0.20001	0.0	0.0	0.0
  	54	4.00E-08	5.00E-08	15	0.20001	0.0	0.0	0.0
  	55	4.00E-08	5.00E-08	15	0.20001	0.0	0.0	0.0
  	56	1.60E-08	5.00E-08	15	0.100005	0.0	0.0	0.0
  	57	1.60E-08	5.00E-08	15	0.100005	0.0	0.0	0.0
  	58	8.00E-09	5.00E-08	15	0.100005	0.0	0.0	0.0
  	59	8.00E-09	5.00E-08	15	0.100005	0.0	0.0	0.0
  	60	1.60E-08	5.00E-08	15	0.20001	0.0	0.0	0.0
  	61	4.00E-08	5.00E-08	15	0.20001	0.0	0.0	0.0
  	62	4.00E-08	5.00E-08	15	0.20001	0.0	0.0	0.0
  	63	4.00E-08	5.00E-08	15	0.20001	0.0	0.0	0.0
  	64	1.60E-08	5.00E-08	15	0.100005	0.0	0.0	0.0
  	65	1.60E-08	5.00E-08	15	0.100005	0.0	0.0	0.0
  	66	8.00E-09	5.00E-08	15	0.100005	0.0	0.0	0.0
  	67	8.00E-09	5.00E-08	15	0.100005	0.0	0.0	0.0
  	68	1.60E-08	5.00E-08	15	0.20001	0.0	0.0	0.0
  	69	4.00E-08	5.00E-08	15	0.20001	0.0	0.0	0.0
  	70	4.00E-08	5.00E-08	15	0.20001	0.0	0.0	0.0
  	71	4.00E-08	5.00E-08	15	0.20001	0.0	0.0	0.0
  	72	1.60E-08	5.00E-08	15	0.100005	0.0	0.0	0.0
  	73	1.60E-08	5.00E-08	15	0.100005	0.0	0.0	0.0
  	74	8.00E-09	5.00E-08	15	0.100005	0.0	0.0	0.0
  	75	8.00E-09	5.00E-08	15	0.100005	0.0	0.0	0.0
  	76	1.60E-08	5.00E-08	15	0.20001	0.0	0.0	0.0
  	77	4.00E-08	5.00E-08	15	0.20001	0.0	0.0	0.0
  	78	6.40E-08	5.00E-08	15	0.20001	0.0	0.0	0.0
  	79	8.00E-09	5.00E-08	15	0.20001	0.0	0.0	0.0
  	80	8.00E-09	5.00E-08	15	0.20001	0.0	0.0	0.0
  	81	8.00E-09	5.00E-08	15	0.100005	0.0	0.0	0.0
  	82	8.00E-09	5.00E-08	15	0.100005	0.0	0.0	0.0
  	83	8.00E-09	5.00E-08	15	0.100005	0.0	0.0	0.0
  	84	8.00E-09	5.00E-08	15	0.100005	0.0	0.0	0.0
  	85	1.60E-08	5.00E-08	15	0.20001	0.0	0.0	0.0
  	86	4.00E-08	5.00E-08	15	0.20001	0.0	0.0	0.0
  	87	8.00E-09	5.00E-08	15	0.20001	0.0	0.0	0.0
  	88	8.00E-09	5.00E-08	15	0.20001	0.0	0.0	0.0
  	89	8.00E-09	5.00E-08	15	0.100005	0.0	0.0	0.0
  	90	8.00E-09	5.00E-08	15	0.100005	0.0	0.0	0.0
  	91	8.00E-09	5.00E-08	15	0.100005	0.0	0.0	0.0
  	92	8.00E-09	5.00E-08	15	0.100005	0.0	0.0	0.0
  	93	8.00E-09	5.00E-08	15	0.100005	0.0	0.0	0.0
  	94	8.00E-09	5.00E-08	15	0.20001	0.0	0.0	0.0
  	95	1.60E-08	5.00E-08	15	0.20001	0.0	0.0	0.0
  	96	8.00E-09	5.00E-08	15	0.100005	0.0	0.0	0.0
  	97	8.00E-09	5.00E-08	15	0.100005	0.0	0.0	0.0
  	98	1.60E-08	5.00E-08	15	0.100005	0.0	0.0	0.0
  	99	1.60E-08	5.00E-08	15	0.100005	0.0	0.0	0.0
  	100	1.60E-08	5.00E-08	15	0.100005	0.0	0.0	0.0
  	101	1.60E-08	5.00E-08	15	0.100005	0.0	0.0	0.0
  	102	1.60E-08	5.00E-08	15	0.100005	0.0	0.0	0.0
  	103	8.00E-09	5.00E-08	15	0.100005	0.0	0.0	0.0
  	104	8.00E-09	5.00E-08	15	0.100005	0.0	0.0	0.0
  	105	1.60E-08	5.00E-08	15	0.20001	0.0	0.0	0.0
  	106	4.00E-08	5.00E-08	15	0.20001	0.0	0.0	0.0
  	107	4.00E-08	5.00E-08	15	0.20001	0.0	0.0	0.0
  	108	4.00E-08	5.00E-08	15	0.20001	0.0	0.0	0.0
  	109	4.00E-08	5.00E-08	15	0.20001	0.0	0.0	0.0
  	110	4.00E-08	5.00E-08	15	0.20001	0.0	0.0	0.0
  	111	1.60E-08	5.00E-08	15	0.20001	0.0	0.0	0.0
  	112	8.00E-09	5.00E-08	15	0.100005	0.0	0.0	0.0
  	113	6.40E-08	5.00E-08	15	0.20001	0.0	0.0	0.0
  	114	6.40E-08	5.00E-08	15	0.20001	0.0	0.0	0.0
  	115	6.40E-08	5.00E-08	15	0.20001	0.0	0.0	0.0
  	116	6.40E-08	5.00E-08	15	0.20001	0.0	0.0	0.0
END	PERIOD							
								
BEGIN	PERIOD	3				
#  id	finf	pet	extdp	extwc			
  	1	1.00E-08	5.00E-08	15	0.100005	0.0	0.0	0.0
  	2	2.00E-08	5.00E-08	15	0.100005	0.0	0.0	0.0
  	3	2.00E-08	5.00E-08	15	0.20001	0.0	0.0	0.0
  	4	1.00E-08	5.00E-08	15	0.100005	0.0	0.0	0.0
  	5	2.00E-08	5.00E-08	15	0.100005	0.0	0.0	0.0
  	6	8.00E-08	5.00E-08	15	0.20001	0.0	0.0	0.0
  	7	8.00E-08	5.00E-08	15	0.20001	0.0	0.0	0.0
  	8	5.00E-08	5.00E-08	15	0.20001	0.0	0.0	0.0
  	9	5.00E-08	5.00E-08	15	0.20001	0.0	0.0	0.0
  	10	1.00E-08	5.00E-08	15	0.100005	0.0	0.0	0.0
  	11	1.00E-08	5.00E-08	15	0.100005	0.0	0.0	0.0
  	12	8.00E-08	5.00E-08	15	0.20001	0.0	0.0	0.0
  	13	8.00E-08	5.00E-08	15	0.20001	0.0	0.0	0.0
  	14	5.00E-08	5.00E-08	15	0.20001	0.0	0.0	0.0
  	15	5.00E-08	5.00E-08	15	0.20001	0.0	0.0	0.0
  	16	8.00E-08	5.00E-08	15	0.20001	0.0	0.0	0.0
  	17	5.00E-08	5.00E-08	15	0.20001	0.0	0.0	0.0
  	18	1.00E-08	5.00E-08	15	0.20001	0.0	0.0	0.0
  	19	1.00E-08	5.00E-08	15	0.100005	0.0	0.0	0.0
  	20	1.00E-08	5.00E-08	15	0.100005	0.0	0.0	0.0
  	21	1.00E-08	5.00E-08	15	0.100005	0.0	0.0	0.0
  	22	1.00E-08	5.00E-08	15	0.20001	0.0	0.0	0.0
  	23	1.00E-08	5.00E-08	15	0.20001	0.0	0.0	0.0
  	24	2.00E-08	5.00E-08	15	0.20001	0.0	0.0	0.0
  	25	8.00E-08	5.00E-08	15	0.20001	0.0	0.0	0.0
  	26	5.00E-08	5.00E-08	15	0.20001	0.0	0.0	0.0
  	27	1.00E-08	5.00E-08	15	0.20001	0.0	0.0	0.0
  	28	1.00E-08	5.00E-08	15	0.100005	0.0	0.0	0.0
  	29	1.00E-08	5.00E-08	15	0.100005	0.0	0.0	0.0
  	30	1.00E-08	5.00E-08	15	0.100005	0.0	0.0	0.0
  	31	1.00E-08	5.00E-08	15	0.100005	0.0	0.0	0.0
  	32	1.00E-08	5.00E-08	15	0.100005	0.0	0.0	0.0
  	33	1.00E-08	5.00E-08	15	0.100005	0.0	0.0	0.0
  	34	1.00E-08	5.00E-08	15	0.100005	0.0	0.0	0.0
  	35	8.00E-08	5.00E-08	15	0.20001	0.0	0.0	0.0
  	36	5.00E-08	5.00E-08	15	0.20001	0.0	0.0	0.0
  	37	5.00E-08	5.00E-08	15	0.20001	0.0	0.0	0.0
  	38	2.00E-08	5.00E-08	15	0.100005	0.0	0.0	0.0
  	39	2.00E-08	5.00E-08	15	0.100005	0.0	0.0	0.0
  	40	1.00E-08	5.00E-08	15	0.100005	0.0	0.0	0.0
  	41	1.00E-08	5.00E-08	15	0.100005	0.0	0.0	0.0
  	42	1.00E-08	5.00E-08	15	0.100005	0.0	0.0	0.0
  	43	1.00E-08	5.00E-08	15	0.20001	0.0	0.0	0.0
  	44	5.00E-08	5.00E-08	15	0.20001	0.0	0.0	0.0
  	45	8.00E-08	5.00E-08	15	0.20001	0.0	0.0	0.0
  	46	5.00E-08	5.00E-08	15	0.20001	0.0	0.0	0.0
  	47	5.00E-08	5.00E-08	15	0.20001	0.0	0.0	0.0
  	48	2.00E-08	5.00E-08	15	0.100005	0.0	0.0	0.0
  	49	2.00E-08	5.00E-08	15	0.100005	0.0	0.0	0.0
  	50	1.00E-08	5.00E-08	15	0.100005	0.0	0.0	0.0
  	51	1.00E-08	5.00E-08	15	0.100005	0.0	0.0	0.0
  	52	2.00E-08	5.00E-08	15	0.100005	0.0	0.0	0.0
  	53	2.00E-08	5.00E-08	15	0.20001	0.0	0.0	0.0
  	54	5.00E-08	5.00E-08	15	0.20001	0.0	0.0	0.0
  	55	5.00E-08	5.00E-08	15	0.20001	0.0	0.0	0.0
  	56	2.00E-08	5.00E-08	15	0.100005	0.0	0.0	0.0
  	57	2.00E-08	5.00E-08	15	0.100005	0.0	0.0	0.0
  	58	1.00E-08	5.00E-08	15	0.100005	0.0	0.0	0.0
  	59	1.00E-08	5.00E-08	15	0.100005	0.0	0.0	0.0
  	60	2.00E-08	5.00E-08	15	0.20001	0.0	0.0	0.0
  	61	5.00E-08	5.00E-08	15	0.20001	0.0	0.0	0.0
  	62	5.00E-08	5.00E-08	15	0.20001	0.0	0.0	0.0
  	63	5.00E-08	5.00E-08	15	0.20001	0.0	0.0	0.0
  	64	2.00E-08	5.00E-08	15	0.100005	0.0	0.0	0.0
  	65	2.00E-08	5.00E-08	15	0.100005	0.0	0.0	0.0
  	66	1.00E-08	5.00E-08	15	0.100005	0.0	0.0	0.0
  	67	1.00E-08	5.00E-08	15	0.100005	0.0	0.0	0.0
  	68	2.00E-08	5.00E-08	15	0.20001	0.0	0.0	0.0
  	69	5.00E-08	5.00E-08	15	0.20001	0.0	0.0	0.0
  	70	5.00E-08	5.00E-08	15	0.20001	0.0	0.0	0.0
  	71	5.00E-08	5.00E-08	15	0.20001	0.0	0.0	0.0
  	72	2.00E-08	5.00E-08	15	0.100005	0.0	0.0	0.0
  	73	2.00E-08	5.00E-08	15	0.100005	0.0	0.0	0.0
  	74	1.00E-08	5.00E-08	15	0.100005	0.0	0.0	0.0
  	75	1.00E-08	5.00E-08	15	0.100005	0.0	0.0	0.0
  	76	2.00E-08	5.00E-08	15	0.20001	0.0	0.0	0.0
  	77	5.00E-08	5.00E-08	15	0.20001	0.0	0.0	0.0
  	78	8.00E-08	5.00E-08	15	0.20001	0.0	0.0	0.0
  	79	1.00E-08	5.00E-08	15	0.20001	0.0	0.0	0.0
  	80	1.00E-08	5.00E-08	15	0.20001	0.0	0.0	0.0
  	81	1.00E-08	5.00E-08	15	0.100005	0.0	0.0	0.0
  	82	1.00E-08	5.00E-08	15	0.100005	0.0	0.0	0.0
  	83	1.00E-08	5.00E-08	15	0.100005	0.0	0.0	0.0
  	84	1.00E-08	5.00E-08	15	0.100005	0.0	0.0	0.0
  	85	2.00E-08	5.00E-08	15	0.20001	0.0	0.0	0.0
  	86	5.00E-08	5.00E-08	15	0.20001	0.0	0.0	0.0
  	87	1.00E-08	5.00E-08	15	0.20001	0.0	0.0	0.0
  	88	1.00E-08	5.00E-08	15	0.20001	0.0	0.0	0.0
  	89	1.00E-08	5.00E-08	15	0.100005	0.0	0.0	0.0