# NPF8 input file, prepared by MF5to6 on 7/29/2016 at 16:49:22.

BEGIN Options
  PERCHED
  VARIABLECV  DEWATERED
END Options

BEGIN GRIDDATA
  Icelltype LAYERED
    CONSTANT  1
  k  LAYERED
    INTERNAL  FACTOR  1.0  IPRN  12
  0.2000000E-02  0.2000000E-02   0.000000       0.000000       0.000000       0.000000       0.000000       0.000000       0.000000       0.000000    
  0.4000000E-03  0.2000000E-02  0.2000000E-02   0.000000       0.000000      0.4000000E-03  0.4000000E-03  0.4000000E-03   0.000000       0.000000    
   0.000000      0.4000000E-03  0.2000000E-02  0.2000000E-02  0.4000000E-03  0.4000000E-03  0.4000000E-03  0.4000000E-03   0.000000       0.000000    
  0.4000000E-03  0.4000000E-03  0.4000000E-03  0.2000000E-02  0.2000000E-02  0.2000000E-02  0.4000000E-03  0.4000000E-03  0.4000000E-03   0.000000    
  0.4000000E-03  0.4000000E-03  0.4000000E-03  0.2000000E-02  0.2000000E-02  0.2000000E-02  0.2000000E-02  0.2000000E-02  0.2000000E-02  0.2000000E-02
  0.4000000E-03  0.4000000E-03  0.4000000E-03  0.2000000E-02  0.2000000E-02  0.2000000E-02  0.2000000E-02  0.2000000E-02  0.4000000E-03  0.4000000E-03
  0.4000000E-03  0.4000000E-03  0.4000000E-03  0.2000000E-02  0.2000000E-02  0.2000000E-02  0.2000000E-02  0.2000000E-02  0.4000000E-03   0.000000    
   0.000000      0.4000000E-03  0.4000000E-03  0.2000000E-02  0.2000000E-02  0.2000000E-02  0.2000000E-02  0.4000000E-03  0.4000000E-03   0.000000    
   0.000000      0.4000000E-03  0.4000000E-03  0.2000000E-02  0.2000000E-02  0.2000000E-02  0.2000000E-02  0.4000000E-03  0.4000000E-03   0.000000    
   0.000000      0.4000000E-03  0.4000000E-03  0.2000000E-02  0.2000000E-02  0.2000000E-02  0.2000000E-02  0.4000000E-03  0.4000000E-03  0.4000000E-03
   0.000000      0.4000000E-03  0.4000000E-03  0.2000000E-02  0.2000000E-02  0.2000000E-02  0.2000000E-02  0.4000000E-03  0.4000000E-03   0.000000    
  0.4000000E-03  0.4000000E-03  0.2000000E-02  0.2000000E-02  0.2000000E-02  0.2000000E-02  0.2000000E-02  0.4000000E-03  0.4000000E-03   0.000000    
  0.2000000E-02  0.2000000E-02  0.2000000E-02  0.2000000E-02  0.2000000E-02  0.2000000E-02  0.2000000E-02  0.2000000E-02  0.2000000E-02   0.000000    
   0.000000      0.4000000E-03  0.4000000E-03  0.4000000E-03  0.4000000E-03  0.4000000E-03  0.4000000E-03  0.4000000E-03  0.2000000E-02   0.000000    
   0.000000       0.000000      0.4000000E-03  0.4000000E-03  0.4000000E-03  0.4000000E-03   0.000000       0.000000       0.000000       0.000000    
  K33  LAYERED
    CONSTANT   0.100000000E-05
END GRIDDATA
