BEGIN options
  DIGITS  10
  PRINT_INPUT
END options

BEGIN continuous  FILEOUT  gwf_calib_obs.csv
  h1_1_2  HEAD  1 1 2
END continuous  FILEOUT  gwf_calib_obs.csv

