BEGIN OPTIONS
#none
END OPTIONS

BEGIN TIMING
  TDIS6 parent.tdis
END TIMING

BEGIN MODELS
  #modeltype    namefile            modelname
         GWF6  parent.nam               PARENT
END MODELS

BEGIN EXCHANGES
END EXCHANGES

#implicit coupling
BEGIN SOLUTIONGROUP 1
  MXITER 1
  IMS6 parent.ims PARENT
END SOLUTIONGROUP

