BEGIN OPTIONS
  READASARRAYS
  SAVE_FLOWS
END OPTIONS

BEGIN PERIOD 1
  RECHARGE
    OPEN/CLOSE parent.rch.rech.ref FACTOR  1.0  IPRN -1
END PERIOD
