BEGIN OPTIONS
  HEAD FILEOUT parent.hds
  BUDGET FILEOUT parent.cbb
END OPTIONS

BEGIN PERIOD 1
  PRINT BUDGET ALL
  SAVE BUDGET ALL
  PRINT HEAD ALL
  SAVE HEAD ALL
END PERIOD

