BEGIN OPTIONS
  LENGTH_UNITS METERS
END OPTIONS

BEGIN DIMENSIONS
  NLAY 9
  NROW 61
  NCOL 49
END DIMENSIONS

BEGIN GRIDDATA
  DELR
    CONSTANT 105.
  DELC
    CONSTANT 75.
  TOP
    OPEN/CLOSE parent.dis.top.ref FACTOR  1.0  IPRN -1
  BOTM LAYERED
    CONSTANT    30.000   BOTTOM of Layer   1
    CONSTANT    15.000   BOTTOM of Layer   2
    CONSTANT  0.00e+00   BOTTOM of Layer   3
    CONSTANT   -15.000   BOTTOM of Layer   4
    CONSTANT   -30.000   BOTTOM of Layer   5
    CONSTANT   -45.000   BOTTOM of Layer   6
    CONSTANT   -60.000   BOTTOM of Layer   7
    CONSTANT   -75.000   BOTTOM of Layer   8
    CONSTANT   -90.000   BOTTOM of Layer   9
END GRIDDATA
