# OC8 input file, prepared by MF5to6 on 3/7/2016 at 12:39:51.

BEGIN Options
  HEAD FILEOUT  lake0.hds
  HEAD PRINT_FORMAT  COLUMNS 10  WIDTH 11  DIGITS 4  GENERAL
  BUDGET FILEOUT lake0.cbc
END Options

BEGIN PERIOD 1
  PRINT BUDGET ALL
  SAVE BUDGET ALL
  SAVE HEAD ALL
  PRINT HEAD ALL
END PERIOD
