BEGIN Options
END Options

BEGIN PACKAGES
  DIS6          lake0.dis
  IC6           lake0.ic
  NPF6          lake0.npf
  OC6           lake0.oc
  CHD6          lake0.chd
  LAK6          lake0.lak
END PACKAGES

