# CHD8 input file, prepared by MF5to6 on 3/7/2016 at 12:39:51.

BEGIN Options
  PRINT_INPUT
END Options

BEGIN Dimensions
  MAXBOUND  16
END Dimensions

BEGIN PERIOD 1
  1  1  1    5.0100000        5.0100000
  1  1  2    5.0100000        5.0100000
  1  1  3    5.0100000        5.0100000
  1  1  4    5.0100000        5.0100000
  1  1  5    5.0100000        5.0100000
  1  2  1    5.0100000        5.0100000
  1  2  5    5.0100000        5.0100000
  1  3  1    5.0100000        5.0100000
  1  3  5    5.0100000        5.0100000
  1  4  1    5.0100000        5.0100000
  1  4  5    5.0100000        5.0100000
  1  5  1    5.0100000        5.0100000
  1  5  2    5.0100000        5.0100000
  1  5  3    5.0100000        5.0100000
  1  5  4    5.0100000        5.0100000
  1  5  5    5.0100000        5.0100000
END PERIOD
