BEGIN DIMENSIONS
  NROW 151
  NCOL 3
END DIMENSIONS

BEGIN TABLE
  -5.00000E+00   0.00000E+00   1.62500E+07
  -4.30000E+00   1.13750E+07   1.62500E+07
  -3.60000E+00   2.27500E+07   1.62500E+07
  -2.90000E+00   3.41250E+07   1.62500E+07
  -2.20000E+00   4.55000E+07   1.62500E+07
  -1.50000E+00   5.68750E+07   1.62500E+07
  -8.00000E-01   6.82500E+07   1.62500E+07
  -1.00000E-01   7.96250E+07   1.62500E+07
   6.00000E-01   9.10000E+07   1.62500E+07
   1.30000E+00   1.02375E+08   1.62500E+07
   2.00000E+00   1.13750E+08   1.62500E+07
   2.70000E+00   1.25125E+08   1.62500E+07
   3.40000E+00   1.36500E+08   1.62500E+07
   4.10000E+00   1.47875E+08   1.62500E+07
   4.80000E+00   1.59250E+08   1.62500E+07
   5.50000E+00   1.70625E+08   1.62500E+07
   6.20000E+00   1.82000E+08   1.62500E+07
   6.90000E+00   1.93375E+08   1.62500E+07
   7.60000E+00   2.04750E+08   1.62500E+07
   8.30000E+00   2.16125E+08   1.62500E+07
   9.00000E+00   2.27500E+08   1.62500E+07
   9.70000E+00   2.38875E+08   1.62500E+07
   1.04000E+01   2.50250E+08   1.62500E+07
   1.11000E+01   2.61625E+08   1.62500E+07
   1.18000E+01   2.73000E+08   1.62500E+07
   1.25000E+01   2.84375E+08   1.62500E+07
   1.32000E+01   2.95750E+08   1.62500E+07
   1.39000E+01   3.07125E+08   1.62500E+07
   1.46000E+01   3.18500E+08   1.62500E+07
   1.53000E+01   3.29875E+08   1.62500E+07
   1.60000E+01   3.41250E+08   1.62500E+07
   1.67000E+01   3.52625E+08   1.62500E+07
   1.74000E+01   3.64000E+08   1.62500E+07
   1.81000E+01   3.75375E+08   1.62500E+07
   1.88000E+01   3.86750E+08   1.62500E+07
   1.95000E+01   3.98125E+08   1.62500E+07
   2.02000E+01   4.09500E+08   1.62500E+07
   2.09000E+01   4.20875E+08   1.62500E+07
   2.16000E+01   4.32250E+08   1.62500E+07
   2.23000E+01   4.43625E+08   1.62500E+07
   2.30000E+01   4.55000E+08   1.62500E+07
   2.37000E+01   4.66375E+08   1.62500E+07
   2.44000E+01   4.77750E+08   1.62500E+07
   2.51000E+01   4.89125E+08   1.62500E+07
   2.58000E+01   5.00500E+08   1.62500E+07
   2.65000E+01   5.11875E+08   1.62500E+07
   2.72000E+01   5.23250E+08   1.62500E+07
   2.79000E+01   5.34625E+08   1.62500E+07
   2.86000E+01   5.46000E+08   1.62500E+07
   2.93000E+01   5.57375E+08   1.62500E+07
   3.00000E+01   5.68750E+08   1.62500E+07
   3.07000E+01   5.80125E+08   1.62500E+07
   3.14000E+01   5.91500E+08   1.62500E+07
   3.21000E+01   6.02875E+08   1.62500E+07
   3.28000E+01   6.14250E+08   1.62500E+07
   3.35000E+01   6.25625E+08   1.62500E+07
   3.42000E+01   6.37000E+08   1.62500E+07
   3.49000E+01   6.48375E+08   1.62500E+07
   3.56000E+01   6.59750E+08   1.62500E+07
   3.63000E+01   6.71125E+08   1.62500E+07
   3.70000E+01   6.82500E+08   1.62500E+07
   3.77000E+01   6.93875E+08   1.62500E+07
   3.84000E+01   7.05250E+08   1.62500E+07
   3.91000E+01   7.16625E+08   1.62500E+07
   3.98000E+01   7.28000E+08   1.62500E+07
   4.05000E+01   7.39375E+08   1.62500E+07
   4.12000E+01   7.50750E+08   1.62500E+07
   4.19000E+01   7.62125E+08   1.62500E+07
   4.26000E+01   7.73500E+08   1.62500E+07
   4.33000E+01   7.84875E+08   1.62500E+07
   4.40000E+01   7.96250E+08   1.62500E+07
   4.47000E+01   8.07625E+08   1.62500E+07
   4.54000E+01   8.19000E+08   1.62500E+07
   4.61000E+01   8.30375E+08   1.62500E+07
   4.68000E+01   8.41750E+08   1.62500E+07
   4.75000E+01   8.53125E+08   1.62500E+07
   4.82000E+01   8.64500E+08   1.62500E+07
   4.89000E+01   8.75875E+08   1.62500E+07
   4.96000E+01   8.87250E+08   1.62500E+07
   5.03000E+01   8.98625E+08   1.62500E+07
   5.10000E+01   9.10000E+08   1.62500E+07
   5.17000E+01   9.21375E+08   1.62500E+07
   5.24000E+01   9.32750E+08   1.62500E+07
   5.31000E+01   9.44125E+08   1.62500E+07
   5.38000E+01   9.55500E+08   1.62500E+07
   5.45000E+01   9.66875E+08   1.62500E+07
   5.52000E+01   9.78250E+08   1.62500E+07
   5.59000E+01   9.89625E+08   1.62500E+07
   5.66000E+01   1.00100E+09   1.62500E+07
   5.73000E+01   1.01238E+09   1.62500E+07
   5.80000E+01   1.02375E+09   1.62500E+07
   5.87000E+01   1.03512E+09   1.62500E+07
   5.94000E+01   1.04650E+09   1.62500E+07
   6.01000E+01   1.05788E+09   1.62500E+07
   6.08000E+01   1.06925E+09   1.62500E+07
   6.15000E+01   1.08062E+09   1.62500E+07
   6.22000E+01   1.09200E+09   1.62500E+07
   6.29000E+01   1.10338E+09   1.62500E+07
   6.36000E+01   1.11475E+09   1.62500E+07
   6.43000E+01   1.12612E+09   1.62500E+07
   6.50000E+01   1.13750E+09   1.62500E+07
   6.57000E+01   1.14888E+09   1.62500E+07
   6.64000E+01   1.16025E+09   1.62500E+07
   6.71000E+01   1.17162E+09   1.62500E+07
   6.78000E+01   1.18300E+09   1.62500E+07
   6.85000E+01   1.19438E+09   1.62500E+07
   6.92000E+01   1.20575E+09   1.62500E+07
   6.99000E+01   1.21712E+09   1.62500E+07
   7.06000E+01   1.22850E+09   1.62500E+07
   7.13000E+01   1.23988E+09   1.62500E+07
   7.20000E+01   1.25125E+09   1.62500E+07
   7.27000E+01   1.26262E+09   1.62500E+07
   7.34000E+01   1.27400E+09   1.62500E+07
   7.41000E+01   1.28538E+09   1.62500E+07
   7.48000E+01   1.29675E+09   1.62500E+07
   7.55000E+01   1.30812E+09   1.62500E+07
   7.62000E+01   1.31950E+09   1.62500E+07
   7.69000E+01   1.33088E+09   1.62500E+07
   7.76000E+01   1.34225E+09   1.62500E+07
   7.83000E+01   1.35362E+09   1.62500E+07
   7.90000E+01   1.36500E+09   1.62500E+07
   7.97000E+01   1.37638E+09   1.62500E+07
   8.04000E+01   1.38775E+09   1.62500E+07
   8.11000E+01   1.39912E+09   1.62500E+07
   8.18000E+01   1.41050E+09   1.62500E+07
   8.25000E+01   1.42188E+09   1.62500E+07
   8.32000E+01   1.43325E+09   1.62500E+07
   8.39000E+01   1.44462E+09   1.62500E+07
   8.46000E+01   1.45600E+09   1.62500E+07
   8.53000E+01   1.46738E+09   1.62500E+07
   8.60000E+01   1.47875E+09   1.62500E+07
   8.67000E+01   1.49012E+09   1.62500E+07
   8.74000E+01   1.50150E+09   1.62500E+07
   8.81000E+01   1.51288E+09   1.62500E+07
   8.88000E+01   1.52425E+09   1.62500E+07
   8.95000E+01   1.53562E+09   1.62500E+07
   9.02000E+01   1.54700E+09   1.62500E+07
   9.09000E+01   1.55838E+09   1.62500E+07
   9.16000E+01   1.56975E+09   1.62500E+07
   9.23000E+01   1.58112E+09   1.62500E+07
   9.30000E+01   1.59250E+09   1.62500E+07
   9.37000E+01   1.60388E+09   1.62500E+07
   9.44000E+01   1.61525E+09   1.62500E+07
   9.51000E+01   1.62662E+09   1.62500E+07
   9.58000E+01   1.63800E+09   1.62500E+07
   9.65000E+01   1.64938E+09   1.62500E+07
   9.72000E+01   1.66075E+09   1.62500E+07
   9.79000E+01   1.67212E+09   1.62500E+07
   9.86000E+01   1.68350E+09   1.62500E+07
   9.93000E+01   1.69488E+09   1.62500E+07
   1.00000E+02   1.70625E+09   1.62500E+07
END TABLE