# sms8 input file, prepared by mf5to6 on 8/23/2016 at 10:22:04.

begin options
  print_option  summary
  complexity  simple
end options

begin nonlinear
  outer_maximum  17000
  outer_dvclose 1e-8
end nonlinear

begin linear
  inner_maximum 50
  inner_dvclose 1e-9
  inner_rclose 0.1 strict
end linear
