BEGIN OPTIONS
  PRINT_INPUT
  DEV_GROUNDWATER_HEAD_CONDUCTANCE
  BOUNDNAMES
  PRINT_STAGE
  PRINT_FLOWS
  SAVE_FLOWS
  STAGE FILEOUT lake_harbaugh.stage.bin 
  OBS6 FILEIN mv.lak.obs
END OPTIONS

BEGIN DIMENSIONS
  NLAKES 1
  NOUTLETS 0
  NTABLES 1
END DIMENSIONS

BEGIN PACKAGEDATA
# lakeno  strt      lakeconn   boundname
  1       11.0      105        LAKE_HARBAUGH
END PACKAGEDATA

BEGIN CONNECTIONDATA
# lakeno iconn k  i  j  claketype  bedleak  belev telev connlen connwidth
  1      1     1  5  2  HORIZONTAL NONE     0.    0.    250.    500.
  1      2     1  6  2  HORIZONTAL NONE     0.    0.    250.    500.  
  1      3     1  7  2  HORIZONTAL NONE     0.    0.    250.    500.  
  1      4     1  8  2  HORIZONTAL NONE     0.    0.    250.    500.  
  1      5     1  9  2  HORIZONTAL NONE     0.    0.    250.    500.  
  1      6     1 10  2  HORIZONTAL NONE     0.    0.    250.    500.  
  1      7     1  4  3  HORIZONTAL NONE     0.    0.    250.    500.  
  1      8     1  4  3  HORIZONTAL NONE     0.    0.    250.    500.  
  1      9     2  5  3  VERTICAL   NONE     0.    0.    250.    500.  
  1     10     2  6  3  VERTICAL   NONE     0.    0.    250.    500.  
  1     11     2  7  3  VERTICAL   NONE     0.    0.    250.    500.  
  1     12     2  8  3  VERTICAL   NONE     0.    0.    250.    500.  
  1     13     2  9  3  VERTICAL   NONE     0.    0.    250.    500.  
  1     14     2 10  3  VERTICAL   NONE     0.    0.    250.    500.  
  1     15     1 11  3  HORIZONTAL NONE     0.    0.    250.    500.  
  1     16     1 11  3  HORIZONTAL NONE     0.    0.    250.    500.  
  1     17     1 12  3  HORIZONTAL NONE     0.    0.    250.    500.  
  1     18     1  3  4  HORIZONTAL NONE     0.    0.    250.    500.  
  1     19     2  4  4  VERTICAL   NONE     0.    0.    250.    500.  
  1     20     2  5  4  VERTICAL   NONE     0.    0.    250.    500.  
  1     21     2  6  4  VERTICAL   NONE     0.    0.    250.    500.  
  1     22     2  7  4  VERTICAL   NONE     0.    0.    250.    500.  
  1     23     2  8  4  VERTICAL   NONE     0.    0.    250.    500.  
  1     24     2  9  4  VERTICAL   NONE     0.    0.    250.    500.  
  1     25     2 10  4  VERTICAL   NONE     0.    0.    250.    500.  
  1     26     2 11  4  VERTICAL   NONE     0.    0.    250.    500.  
  1     27     2 12  4  VERTICAL   NONE     0.    0.    250.    500.  
  1     28     1 13  4  HORIZONTAL NONE     0.    0.    250.    500.  
  1     29     1 13  4  HORIZONTAL NONE     0.    0.    250.    500.  
  1     30     1 14  4  HORIZONTAL NONE     0.    0.    250.    500.  
  1     31     1 15  4  HORIZONTAL NONE     0.    0.    250.    500.  
  1     32     1  3  5  HORIZONTAL NONE     0.    0.    250.    500.  
  1     33     2  4  5  VERTICAL   NONE     0.    0.    250.    500.  
  1     34     2  5  5  VERTICAL   NONE     0.    0.    250.    500.  
  1     35     2  6  5  VERTICAL   NONE     0.    0.    250.    500.  
  1     36     2  7  5  VERTICAL   NONE     0.    0.    250.    500.  
  1     37     2  8  5  VERTICAL   NONE     0.    0.    250.    500.  
  1     38     2  9  5  VERTICAL   NONE     0.    0.    250.    500.  
  1     39     2 10  5  VERTICAL   NONE     0.    0.    250.    500.  
  1     40     2 11  5  VERTICAL   NONE     0.    0.    250.    500.  
  1     41     2 12  5  VERTICAL   NONE     0.    0.    250.    500.  
  1     42     2 13  5  VERTICAL   NONE     0.    0.    250.    500.  
  1     43     2 14  5  VERTICAL   NONE     0.    0.    250.    500.  
  1     44     2 15  5  VERTICAL   NONE     0.    0.    250.    500.  
  1     45     1 16  5  HORIZONTAL NONE     0.    0.    250.    500.  
  1     46     1 16  5  HORIZONTAL NONE     0.    0.    250.    500.  
  1     47     1  3  6  HORIZONTAL NONE     0.    0.    250.    500.  
  1     48     2  4  6  VERTICAL   NONE     0.    0.    250.    500.  
  1     49     2  5  6  VERTICAL   NONE     0.    0.    250.    500.  
  1     50     2  6  6  VERTICAL   NONE     0.    0.    250.    500.  
  1     51     2  7  6  VERTICAL   NONE     0.    0.    250.    500.  
  1     52     2  8  6  VERTICAL   NONE     0.    0.    250.    500.  
  1     53     2  9  6  VERTICAL   NONE     0.    0.    250.    500.  
  1     54     2 10  6  VERTICAL   NONE     0.    0.    250.    500.  
  1     55     2 11  6  VERTICAL   NONE     0.    0.    250.    500.  
  1     56     2 12  6  VERTICAL   NONE     0.    0.    250.    500.  
  1     57     2 13  6  VERTICAL   NONE     0.    0.    250.    500.  
  1     58     2 14  6  VERTICAL   NONE     0.    0.    250.    500.  
  1     59     2 15  6  VERTICAL   NONE     0.    0.    250.    500.  
  1     60     2 16  6  VERTICAL   NONE     0.    0.    250.    500.  
  1     61     1 17  6  HORIZONTAL NONE     0.    0.    250.    500.  
  1     62     1  3  7  HORIZONTAL NONE     0.    0.    250.    500.  
  1     63     2  4  7  VERTICAL   NONE     0.    0.    250.    500.  
  1     64     2  5  7  VERTICAL   NONE     0.    0.    250.    500.  
  1     65     2  6  7  VERTICAL   NONE     0.    0.    250.    500.  
  1     66     2  7  7  VERTICAL   NONE     0.    0.    250.    500.  
  1     67     2  8  7  VERTICAL   NONE     0.    0.    250.    500.  
  1     68     2  9  7  VERTICAL   NONE     0.    0.    250.    500.  
  1     69     2 10  7  VERTICAL   NONE     0.    0.    250.    500.  
  1     70     2 11  7  VERTICAL   NONE     0.    0.    250.    500.  
  1     71     2 12  7  VERTICAL   NONE     0.    0.    250.    500.  
  1     72     2 13  7  VERTICAL   NONE     0.    0.    250.    500.  
  1     73     2 14  7  VERTICAL   NONE     0.    0.    250.    500.  
  1     74     2 15  7  VERTICAL   NONE     0.    0.    250.    500.  
  1     75     2 16  7  VERTICAL   NONE     0.    0.    250.    500.  
  1     76     1 17  7  HORIZONTAL NONE     0.    0.    250.    500.  
  1     77     1  4  8  HORIZONTAL NONE     0.    0.    250.    500.  
  1     78     1  5  8  HORIZONTAL NONE     0.    0.    250.    500.  
  1     79     1  6  8  HORIZONTAL NONE     0.    0.    250.    500.  
  1     80     1  7  8  HORIZONTAL NONE     0.    0.    250.    500.  
  1     81     1  8  8  HORIZONTAL NONE     0.    0.    250.    500.  
  1     82     1  9  8  HORIZONTAL NONE     0.    0.    250.    500.  
  1     83     1  9  8  HORIZONTAL NONE     0.    0.    250.    500.  
  1     84     2 10  8  VERTICAL   NONE     0.    0.    250.    500.  
  1     85     2 11  8  VERTICAL   NONE     0.    0.    250.    500.  
  1     86     2 12  8  VERTICAL   NONE     0.    0.    250.    500.  
  1     87     2 13  8  VERTICAL   NONE     0.    0.    250.    500.  
  1     88     2 14  8  VERTICAL   NONE     0.    0.    250.    500.  
  1     89     2 15  8  VERTICAL   NONE     0.    0.    250.    500.  
  1     90     2 16  8  VERTICAL   NONE     0.    0.    250.    500.  
  1     91     1 17  8  HORIZONTAL NONE     0.    0.    250.    500.  
  1     92     1 10  9  HORIZONTAL NONE     0.    0.    250.    500.  
  1     93     1 11  9  HORIZONTAL NONE     0.    0.    250.    500.  
  1     94     1 11  9  HORIZONTAL NONE     0.    0.    250.    500.  
  1     95     2 12  9  VERTICAL   NONE     0.    0.    250.    500.  
  1     96     2 13  9  VERTICAL   NONE     0.    0.    250.    500.  
  1     97     2 14  9  VERTICAL   NONE     0.    0.    250.    500.  
  1     98     2 15  9  VERTICAL   NONE     0.    0.    250.    500.  
  1     99     2 16  9  VERTICAL   NONE     0.    0.    250.    500.  
  1    100     1 17  9  HORIZONTAL NONE     0.    0.    250.    500.  
  1    101     1 12 10  HORIZONTAL NONE     0.    0.    250.    500.  
  1    102     1 13 10  HORIZONTAL NONE     0.    0.    250.    500.  
  1    103     1 14 10  HORIZONTAL NONE     0.    0.    250.    500.  
  1    104     1 15 10  HORIZONTAL NONE     0.    0.    250.    500.  
  1    105     1 16 10  HORIZONTAL NONE     0.    0.    250.    500.  
END CONNECTIONDATA

BEGIN TABLES
  1 TAB6 FILEIN lak.table.ref
END TABLES

BEGIN PERIOD 1
  1 status active
# lakeno  lakesetting  
  1       RAINFALL    0.00821918
  1       EVAPORATION 0.0062296
END PERIOD
