# MODFLOW2005 Drain Package
        24        00
        01        00                      Stress Period 01
         1         1        21     0.000 5.000e+03         0
