# MODFLOW2005 Basic Package
#   

  CONSTANT         1 (FREE)                     -1     IBOUND Layer   1
  CONSTANT         1 (FREE)                     -1     IBOUND Layer   2
  CONSTANT         1 (FREE)                     -1     IBOUND Layer   3
 -1.0E+30
  CONSTANT    -3.50 (FREE)                       0     STARTING HEADS Layer   1
  CONSTANT    -3.50 (FREE)                       0     STARTING HEADS Layer   2
  CONSTANT    -3.50 (FREE)                       0     STARTING HEADS Layer   3
