BEGIN OPTIONS
END OPTIONS

BEGIN PACKAGES
  DIS6          flow-l9.dis
  IC6           flow-l9.ic
  NPF6          flow-l9.npf
  OC6           flow-l9.oc
END PACKAGES
