# IC8 input file, prepared by mf5to15 on 4/10/2015 at 9:04:54.

BEGIN Options
END Options

BEGIN GRIDDATA
  STRT
    CONSTANT 10.
END GRIDDATA
