BEGIN OPTIONS
END OPTIONS

BEGIN PACKAGES
  DIS6          flow-l8.dis
  IC6           flow-l8.ic
  NPF6          flow-l8.npf
  OC6           flow-l8.oc
END PACKAGES
