
BEGIN OPTIONS
  AUXILIARY ANGLDEGX CDIST
END OPTIONS

BEGIN DIMENSIONS
  NEXG 10
END DIMENSIONS

  # nodem1 nodem2  ihc  cl1   cl2    hwva  angldegx    cdist
BEGIN EXCHANGEDATA
    1 1 1   1 1 1    0  0.5   0.5     1.0         0.     1.0
    1 1 2   1 1 2    0  0.5   0.5     1.0         0.     1.0
    1 1 3   1 1 3    0  0.5   0.5     1.0         0.     1.0
    1 1 4   1 1 4    0  0.5   0.5     1.0         0.     1.0
    1 1 5   1 1 5    0  0.5   0.5     1.0         0.     1.0
    1 1 6   1 1 6    0  0.5   0.5     1.0         0.     1.0
    1 1 7   1 1 7    0  0.5   0.5     1.0         0.     1.0
    1 1 8   1 1 8    0  0.5   0.5     1.0         0.     1.0
    1 1 9   1 1 9    0  0.5   0.5     1.0         0.     1.0
    1 1 10  1 1 10   0  0.5   0.5     1.0         0.     1.0
END EXCHANGEDATA
