
BEGIN OPTIONS
  HEAD FILEOUT flow-l9.hds
  BUDGET FILEOUT flow-l9.cbc
END OPTIONS

BEGIN PERIOD 1
  PRINT HEAD ALL
  SAVE HEAD ALL
  PRINT BUDGET ALL
  SAVE BUDGET ALL
END PERIOD
