# DIS8 input file, prepared by mf5to15 on 4/10/2015 at 9:04:54.

BEGIN Options
  LENGTH_UNITS  METERS
END Options

BEGIN Dimensions
  NLAY  1
  NROW  1
  NCOL  10
END Dimensions

BEGIN GRIDDATA
  DELR
    CONSTANT   1.0000000        DELR
  DELC
    CONSTANT   1.000000        DELC
  TOP LAYERED
    CONSTANT   7.00000000        TOP array
  BOTM LAYERED
    CONSTANT  6.00000000        BOTM layer 4
END GRIDDATA
