BEGIN OPTIONS
END OPTIONS

BEGIN PACKAGES
  DIS6          flow-l6.dis
  IC6           flow-l6.ic
  NPF6          flow-l6.npf
  OC6           flow-l6.oc
END PACKAGES
