BEGIN OPTIONS
END OPTIONS

BEGIN PACKAGES
  DIS6          flow-l3.dis
  IC6           flow-l3.ic
  NPF6          flow-l3.npf
  OC6           flow-l3.oc
END PACKAGES
