begin options
  print_option summary
end options

begin nonlinear
	outer_dvclose 1.e-4
	outer_maximum 100 500 
	under_relaxation dbd
	under_relaxation_theta 0.85
	under_relaxation_kappa 0.100000e-03
	under_relaxation_gamma 0.
	under_relaxation_momentum 0.100000e+00
	backtracking_number 50
	backtracking_tolerance 0.110000e+01
	backtracking_reduction_factor 0.700000e+00
	backtracking_residual_limit 0.000000e+00
end nonlinear


begin linear
	inner_dvclose 1.0e-4
	inner_rclose 0.0 relative_rclose
	inner_maximum 100
	linear_acceleration bicgstab
	scaling_method none
	reordering_method none
	relaxation_factor 0.97
	number_orthogonalizations 7
	preconditioner_levels 5
	preconditioner_drop_tolerance 1.0e-5
end linear
