begin options
  #PRINT_INPUT
  PRINT_FLOWS
  SAVE_FLOWS
end options

begin dimensions
  MAXBOUND 2
end dimensions

begin period 1
1 1 1   23. 
1 1 200  5. 
end period
