BEGIN OPTIONS
  HEAD FILEOUT zaidel5m.hds
  BUDGET FILEOUT zaidel5m.cbb
END OPTIONS

BEGIN PERIOD 1
  PRINT BUDGET ALL
  SAVE BUDGET ALL
  PRINT HEAD ALL
  SAVE HEAD ALL
END PERIOD
  