#Valley aquifer with 2 sand layers separated by silt.  Stress period 1 is natur
# conditions.  Stress period 2 adds wells.
begin options
end options

BEGIN GRIDDATA
  strt LAYERED
    INTERNAL  FACTOR               1 IPRN  -1 #strt Layer 1                  
      2.300000E+01   2.300000E+01   2.300000E+01   2.300000E+01   2.300000E+01   2.300000E+01   2.300000E+01   2.300000E+01   2.300000E+01   2.300000E+01   2.300000E+01   2.300000E+01   2.300000E+01   2.300000E+01   2.300000E+01   2.300000E+01   2.300000E+01   2.300000E+01   2.300000E+01   2.300000E+01   2.300000E+01   2.300000E+01   2.300000E+01   2.300000E+01   2.300000E+01   2.300000E+01   2.300000E+01   2.300000E+01   2.300000E+01   2.300000E+01   2.300000E+01   2.300000E+01   2.300000E+01   2.300000E+01   2.300000E+01   2.300000E+01   2.300000E+01   2.300000E+01   2.300000E+01   2.300000E+01   2.300000E+01   2.300000E+01   2.300000E+01   2.300000E+01   2.300000E+01   2.300000E+01   2.300000E+01   2.300000E+01   2.300000E+01   2.300000E+01   2.300000E+01   2.300000E+01   2.300000E+01   2.300000E+01   2.300000E+01   2.300000E+01   2.300000E+01   2.300000E+01   2.300000E+01   2.300000E+01   2.300000E+01   2.300000E+01   2.300000E+01   2.300000E+01   2.300000E+01   2.300000E+01   2.300000E+01   2.300000E+01   2.300000E+01   2.300000E+01   2.300000E+01   2.300000E+01   2.300000E+01   2.300000E+01   2.300000E+01   2.300000E+01   2.300000E+01   2.300000E+01   2.300000E+01   2.300000E+01   2.300000E+01   2.300000E+01   2.300000E+01   2.300000E+01   2.300000E+01   2.300000E+01   2.300000E+01   2.300000E+01   2.300000E+01   2.300000E+01   2.300000E+01   2.300000E+01   2.300000E+01   2.300000E+01   2.300000E+01   2.300000E+01   2.300000E+01   2.300000E+01   2.300000E+01   2.300000E+01   2.300000E+01   2.300000E+01   2.300000E+01   2.300000E+01   2.300000E+01   2.300000E+01   2.300000E+01   2.300000E+01   2.300000E+01   2.300000E+01   2.300000E+01   2.300000E+01   2.300000E+01   2.300000E+01   2.300000E+01   2.300000E+01   2.300000E+01   2.300000E+01   2.300000E+01   2.300000E+01   2.300000E+01   2.300000E+01   2.300000E+01   2.300000E+01   2.300000E+01   2.300000E+01   2.300000E+01   2.300000E+01   2.300000E+01   2.300000E+01   2.300000E+01   2.300000E+01   2.300000E+01   2.300000E+01   2.300000E+01   2.300000E+01   2.300000E+01   2.300000E+01   2.300000E+01   2.300000E+01   2.300000E+01   2.300000E+01   2.300000E+01   2.300000E+01   2.300000E+01   2.300000E+01   2.300000E+01   2.300000E+01   2.300000E+01   2.300000E+01   2.300000E+01   2.300000E+01   2.300000E+01   2.300000E+01   2.300000E+01   2.300000E+01   2.300000E+01   2.300000E+01   2.300000E+01   2.300000E+01   2.300000E+01   2.300000E+01   2.300000E+01   2.300000E+01   2.300000E+01   2.300000E+01   2.300000E+01   2.300000E+01   2.300000E+01   2.300000E+01   2.300000E+01   2.300000E+01   2.300000E+01   2.300000E+01   2.300000E+01   2.300000E+01   2.300000E+01   2.300000E+01   2.300000E+01   2.300000E+01   2.300000E+01   2.300000E+01   2.300000E+01   2.300000E+01   2.300000E+01   2.300000E+01   2.300000E+01   2.300000E+01   2.300000E+01   2.300000E+01   2.300000E+01   2.300000E+01   2.300000E+01   2.300000E+01   2.300000E+01   2.300000E+01   2.300000E+01   2.300000E+01   2.300000E+01   5.000000E+00
END GRIDDATA
