# UPW for MODFLOW-NWT, generated by Flopy.
        53      -999         0         0    CONSTANTCV
         0         0
         0         0
         1         1
         0         0
         0         0
CONSTANT    1.000000E+00                           #hk Layer 1                    
CONSTANT    1.000000E-16                           #vka Layer 1                   
CONSTANT    1.000000E-04                           #ss Layer 1                    
CONSTANT    1.000000E+00                           #hk Layer 2                    
CONSTANT    1.000000E-16                           #vka Layer 2                   
CONSTANT    1.000000E-04                           #ss Layer 2                    
