# Multi-node well 2 (MNW2) file for MODFLOW, generated by Flopy
         1        -1         2 
well        -1
SKIN           0         0         0         0
      0.15       0.20         5. 
       -50     -514.9         51         51
         1
well      -1767
