# UZF8 input file, prepared by MF5to6 on 7/29/2016 at 10:56:36.

BEGIN Options
  PRINT_INPUT
  PRINT_FLOWS
  SAVE_FLOWS
  SIMULATE_ET
  LINEAR_GWET
  SIMULATE_GWSEEP
  MOVER
END Options

BEGIN Dimensions
  NUZFCELLS  100
  NTRAILWAVES  25
  NWAVESETS  20
END Dimensions

BEGIN PACKAGEDATA
#  id  cellid lflg vcon surfdep         vks              thtr             thts             thti              eps
  	1  1  1  1  1  0    1.0000000       0.10000000E-05   0.10000000       0.30000000       0.10000000        3.5000000    
  	2  1  1  2  1  0    1.0000000       0.10000000E-05   0.10000000       0.30000000       0.10000000        3.5000000    
  	3  1  2  1  1  0    1.0000000       0.10000000E-05   0.20000000       0.30000000       0.20000000        3.5000000    
  	4  1  2  2  1  0    1.0000000       0.10000000E-05   0.10000000       0.30000000       0.10000000        3.5000000    
  	5  1  2  3  1  0    1.0000000       0.10000000E-05   0.10000000       0.30000000       0.10000000        3.5000000    
  	6  1  2  6  1  0    1.0000000       0.10000000E-05   0.20000000       0.30000000       0.20000000        3.5000000    
  	7  1  2  7  1  0    1.0000000       0.10000000E-05   0.20000000       0.30000000       0.20000000        3.5000000    
  	8  1  2  8  1  0    1.0000000       0.10000000E-05   0.20000000       0.30000000       0.20000000        3.5000000    
  	9  1  3  2  1  0    1.0000000       0.10000000E-05   0.20000000       0.30000000       0.20000000        3.5000000    
   10  1  3  3  1  0    1.0000000       0.10000000E-05   0.10000000       0.30000000       0.10000000        3.5000000    
   11  1  3  4  1  0    1.0000000       0.10000000E-05   0.10000000       0.30000000       0.10000000        3.5000000    
   12  1  3  5  1  0    1.0000000       0.10000000E-05   0.20000000       0.30000000       0.20000000        3.5000000    
   13  1  3  6  1  0    1.0000000       0.10000000E-05   0.20000000       0.30000000       0.20000000        3.5000000    
   14  1  3  7  1  0    1.0000000       0.10000000E-05   0.20000000       0.30000000       0.20000000        3.5000000    
   15  1  3  8  1  0    1.0000000       0.10000000E-05   0.20000000       0.30000000       0.20000000        3.5000000    
   16  1  4  1  1  0    1.0000000       0.10000000E-05   0.20000000       0.30000000       0.20000000        3.5000000    
   17  1  4  2  1  0    1.0000000       0.10000000E-05   0.20000000       0.30000000       0.20000000        3.5000000    
   18  1  4  3  1  0    1.0000000       0.10000000E-05   0.20000000       0.30000000       0.20000000        3.5000000    
   19  1  4  4  1  0    1.0000000       0.10000000E-05   0.10000000       0.30000000       0.10000000        3.5000000    
   20  1  4  5  1  0    1.0000000       0.10000000E-05   0.10000000       0.30000000       0.10000000        3.5000000    
   21  1  4  6  1  0    1.0000000       0.10000000E-05   0.10000000       0.30000000       0.10000000        3.5000000    
   22  1  4  7  1  0    1.0000000       0.10000000E-05   0.20000000       0.30000000       0.20000000        3.5000000    
   23  1  4  8  1  0    1.0000000       0.10000000E-05   0.20000000       0.30000000       0.20000000        3.5000000    
   24  1  4  9  1  0    1.0000000       0.10000000E-05   0.20000000       0.30000000       0.20000000        3.5000000    
   25  1  5  1  1  0    1.0000000       0.10000000E-05   0.20000000       0.30000000       0.20000000        3.5000000    
   26  1  5  2  1  0    1.0000000       0.10000000E-05   0.20000000       0.30000000       0.20000000        3.5000000    
   27  1  5  3  1  0    1.0000000       0.10000000E-05   0.20000000       0.30000000       0.20000000        3.5000000    
   28  1  5  4  1  0    1.0000000       0.10000000E-05   0.10000000       0.30000000       0.10000000        3.5000000    
   29  1  5  5  1  0    1.0000000       0.10000000E-05   0.10000000       0.30000000       0.10000000        3.5000000    
   30  1  5  6  1  0    1.0000000       0.10000000E-05   0.10000000       0.30000000       0.10000000        3.5000000    
   31  1  5  7  1  0    1.0000000       0.10000000E-05   0.10000000       0.30000000       0.10000000        3.5000000    
   32  1  5  8  1  0    1.0000000       0.10000000E-05   0.10000000       0.30000000       0.10000000        3.5000000    
   33  1  5  9  1  0    1.0000000       0.10000000E-05   0.10000000       0.30000000       0.10000000        3.5000000    
   34  1  5  10  1  0    1.0000000       0.10000000E-05   0.10000000       0.30000000       0.10000000        3.5000000    
   35  1  6  1  1  0    1.0000000       0.10000000E-05   0.20000000       0.30000000       0.20000000        3.5000000    
   36  1  6  2  1  0    1.0000000       0.10000000E-05   0.20000000       0.30000000       0.20000000        3.5000000    
   37  1  6  3  1  0    1.0000000       0.10000000E-05   0.20000000       0.30000000       0.20000000        3.5000000    
   38  1  6  4  1  0    1.0000000       0.10000000E-05   0.10000000       0.30000000       0.10000000        3.5000000    
   39  1  6  5  1  0    1.0000000       0.10000000E-05   0.10000000       0.30000000       0.10000000        3.5000000    
   40  1  6  6  1  0    1.0000000       0.10000000E-05   0.10000000       0.30000000       0.10000000        3.5000000    
   41  1  6  7  1  0    1.0000000       0.10000000E-05   0.10000000       0.30000000       0.10000000        3.5000000    
   42  1  6  8  1  0    1.0000000       0.10000000E-05   0.10000000       0.30000000       0.10000000        3.5000000    
   43  1  6  9  1  0    1.0000000       0.10000000E-05   0.20000000       0.30000000       0.20000000        3.5000000    
   44  1  6  10  1  0    1.0000000       0.10000000E-05   0.20000000       0.30000000       0.20000000        3.5000000    
   45  1  7  1  1  0    1.0000000       0.10000000E-05   0.20000000       0.30000000       0.20000000        3.5000000    
   46  1  7  2  1  0    1.0000000       0.10000000E-05   0.20000000       0.30000000       0.20000000        3.5000000    
   47  1  7  3  1  0    1.0000000       0.10000000E-05   0.20000000       0.30000000       0.20000000        3.5000000    
   48  1  7  4  1  0    1.0000000       0.10000000E-05   0.10000000       0.30000000       0.10000000        3.5000000    
   49  1  7  5  1  0    1.0000000       0.10000000E-05   0.10000000       0.30000000       0.10000000        3.5000000    
   50  1  7  6  1  0    1.0000000       0.10000000E-05   0.10000000       0.30000000       0.10000000        3.5000000    
   51  1  7  7  1  0    1.0000000       0.10000000E-05   0.10000000       0.30000000       0.10000000        3.5000000    
   52  1  7  8  1  0    1.0000000       0.10000000E-05   0.10000000       0.30000000       0.10000000        3.5000000    
   53  1  7  9  1  0    1.0000000       0.10000000E-05   0.20000000       0.30000000       0.20000000        3.5000000    
   54  1  8  2  1  0    1.0000000       0.10000000E-05   0.20000000       0.30000000       0.20000000        3.5000000    
   55  1  8  3  1  0    1.0000000       0.10000000E-05   0.20000000       0.30000000       0.20000000        3.5000000    
   56  1  8  4  1  0    1.0000000       0.10000000E-05   0.10000000       0.30000000       0.10000000        3.5000000    
   57  1  8  5  1  0    1.0000000       0.10000000E-05   0.10000000       0.30000000       0.10000000        3.5000000    
   58  1  8  6  1  0    1.0000000       0.10000000E-05   0.10000000       0.30000000       0.10000000        3.5000000    
   59  1  8  7  1  0    1.0000000       0.10000000E-05   0.10000000       0.30000000       0.10000000        3.5000000    
   60  1  8  8  1  0    1.0000000       0.10000000E-05   0.20000000       0.30000000       0.20000000        3.5000000    
   61  1  8  9  1  0    1.0000000       0.10000000E-05   0.20000000       0.30000000       0.20000000        3.5000000    
   62  1  9  2  1  0    1.0000000       0.10000000E-05   0.20000000       0.30000000       0.20000000        3.5000000    
   63  1  9  3  1  0    1.0000000       0.10000000E-05   0.20000000       0.30000000       0.20000000        3.5000000    
   64  1  9  4  1  0    1.0000000       0.10000000E-05   0.10000000       0.30000000       0.10000000        3.5000000    
   65  1  9  5  1  0    1.0000000       0.10000000E-05   0.10000000       0.30000000       0.10000000        3.5000000    
   66  1  9  6  1  0    1.0000000       0.10000000E-05   0.10000000       0.30000000       0.10000000        3.5000000    
   67  1  9  7  1  0    1.0000000       0.10000000E-05   0.10000000       0.30000000       0.10000000        3.5000000    
   68  1  9  8  1  0    1.0000000       0.10000000E-05   0.20000000       0.30000000       0.20000000        3.5000000    
   69  1  9  9  1  0    1.0000000       0.10000000E-05   0.20000000       0.30000000       0.20000000        3.5000000    
   70  1  10  2  1  0    1.0000000       0.10000000E-05   0.20000000       0.30000000       0.20000000        3.5000000    
   71  1  10  3  1  0    1.0000000       0.10000000E-05   0.20000000       0.30000000       0.20000000        3.5000000    
   72  1  10  4  1  0    1.0000000       0.10000000E-05   0.10000000       0.30000000       0.10000000        3.5000000    
   73  1  10  5  1  0    1.0000000       0.10000000E-05   0.10000000       0.30000000       0.10000000        3.5000000    
   74  1  10  6  1  0    1.0000000       0.10000000E-05   0.10000000       0.30000000       0.10000000        3.5000000    
   75  1  10  9  1  0    1.0000000       0.10000000E-05   0.20000000       0.30000000       0.20000000        3.5000000    
   76  1  10  10  1  0    1.0000000       0.10000000E-05   0.20000000       0.30000000       0.20000000        3.5000000    
   77  1  11  2  1  0    1.0000000       0.10000000E-05   0.20000000       0.30000000       0.20000000        3.5000000    
   78  1  11  6  1  0    1.0000000       0.10000000E-05   0.10000000       0.30000000       0.10000000        3.5000000    
   79  1  11  9  1  0    1.0000000       0.10000000E-05   0.20000000       0.30000000       0.20000000        3.5000000    
   80  1  12  1  1  0    1.0000000       0.10000000E-05   0.20000000       0.30000000       0.20000000        3.5000000    
   81  1  12  2  1  0    1.0000000       0.10000000E-05   0.20000000       0.30000000       0.20000000        3.5000000    
   82  1  12  6  1  0    1.0000000       0.10000000E-05   0.10000000       0.30000000       0.10000000        3.5000000    
   83  1  12  7  1  0    1.0000000       0.10000000E-05   0.10000000       0.30000000       0.10000000        3.5000000    
   84  1  12  8  1  0    1.0000000       0.10000000E-05   0.20000000       0.30000000       0.20000000        3.5000000    
   85  1  12  9  1  0    1.0000000       0.10000000E-05   0.20000000       0.30000000       0.20000000        3.5000000    
   86  1  13  1  1  0    1.0000000       0.10000000E-05   0.10000000       0.30000000       0.10000000        3.5000000    
   87  1  13  2  1  0    1.0000000       0.10000000E-05   0.10000000       0.30000000       0.10000000        3.5000000    
   88  1  13  6  1  0    1.0000000       0.10000000E-05   0.10000000       0.30000000       0.10000000        3.5000000    
   89  1  13  7  1  0    1.0000000       0.10000000E-05   0.10000000       0.30000000       0.10000000        3.5000000    
   90  1  13  8  1  0    1.0000000       0.10000000E-05   0.10000000       0.30000000       0.10000000        3.5000000    
   91  1  13  9  1  0    1.0000000       0.10000000E-05   0.10000000       0.30000000       0.10000000        3.5000000    
   92  1  14  2  1  0    1.0000000       0.10000000E-05   0.20000000       0.30000000       0.20000000        3.5000000    
   93  1  14  6  1  0    1.0000000       0.10000000E-05   0.20000000       0.30000000       0.20000000        3.5000000    
   94  1  14  7  1  0    1.0000000       0.10000000E-05   0.20000000       0.30000000       0.20000000        3.5000000    
   95  1  14  8  1  0    1.0000000       0.10000000E-05   0.20000000       0.30000000       0.20000000        3.5000000    
   96  1  14  9  1  0    1.0000000       0.10000000E-05   0.10000000       0.30000000       0.10000000        3.5000000    
   97  1  15  3  1  0    1.0000000       0.10000000E-05   0.20000000       0.30000000       0.20000000        3.5000000    
   98  1  15  4  1  0    1.0000000       0.10000000E-05   0.20000000       0.30000000       0.20000000        3.5000000    
   99  1  15  5  1  0    1.0000000       0.10000000E-05   0.20000000       0.30000000       0.20000000        3.5000000    
  100  1  15  6  1  0    1.0000000       0.10000000E-05   0.20000000       0.30000000       0.20000000        3.5000000    
END PACKAGEDATA

BEGIN	PERIOD	1				
#	uzfid	finf	pet	extdp	extwc	rootact			
  1	1.00E-09	5.00E-08	15	0.100005	0.0	0.0	0.0
  2	2.00E-09	5.00E-08	15	0.100005	0.0	0.0	0.0
  3	2.00E-09	5.00E-08	15	0.20001	0.0	0.0	0.0
  4	1.00E-09	5.00E-08	15	0.100005	0.0	0.0	0.0
  5	2.00E-09	5.00E-08	15	0.100005	0.0	0.0	0.0
  6	8.00E-09	5.00E-08	15	0.20001	0.0	0.0	0.0
  7	8.00E-09	5.00E-08	15	0.20001	0.0	0.0	0.0
  8	5.00E-09	5.00E-08	15	0.20001	0.0	0.0	0.0
  9	5.00E-09	5.00E-08	15	0.20001	0.0	0.0	0.0
  10	1.00E-09	5.00E-08	15	0.100005	0.0	0.0	0.0
  11	1.00E-09	5.00E-08	15	0.100005	0.0	0.0	0.0
  12	8.00E-09	5.00E-08	15	0.20001	0.0	0.0	0.0
  13	8.00E-09	5.00E-08	15	0.20001	0.0	0.0	0.0
  14	5.00E-09	5.00E-08	15	0.20001	0.0	0.0	0.0
  15	5.00E-09	5.00E-08	15	0.20001	0.0	0.0	0.0
  16	8.00E-09	5.00E-08	15	0.20001	0.0	0.0	0.0
  17	5.00E-09	5.00E-08	15	0.20001	0.0	0.0	0.0
  18	1.00E-09	5.00E-08	15	0.20001	0.0	0.0	0.0
  19	1.00E-09	5.00E-08	15	0.100005	0.0	0.0	0.0
  20	1.00E-09	5.00E-08	15	0.100005	0.0	0.0	0.0
  21	1.00E-09	5.00E-08	15	0.100005	0.0	0.0	0.0
  22	1.00E-09	5.00E-08	15	0.20001	0.0	0.0	0.0
  23	1.00E-09	5.00E-08	15	0.20001	0.0	0.0	0.0
  24	2.00E-09	5.00E-08	15	0.20001	0.0	0.0	0.0
  25	8.00E-09	5.00E-08	15	0.20001	0.0	0.0	0.0
  26	5.00E-09	5.00E-08	15	0.20001	0.0	0.0	0.0
  27	1.00E-09	5.00E-08	15	0.20001	0.0	0.0	0.0
  28	1.00E-09	5.00E-08	15	0.100005	0.0	0.0	0.0
  29	1.00E-09	5.00E-08	15	0.100005	0.0	0.0	0.0
  30	1.00E-09	5.00E-08	15	0.100005	0.0	0.0	0.0
  31	1.00E-09	5.00E-08	15	0.100005	0.0	0.0	0.0
  32	1.00E-09	5.00E-08	15	0.100005	0.0	0.0	0.0
  33	1.00E-09	5.00E-08	15	0.100005	0.0	0.0	0.0
  34	1.00E-09	5.00E-08	15	0.100005	0.0	0.0	0.0
  35	8.00E-09	5.00E-08	15	0.20001	0.0	0.0	0.0
  36	5.00E-09	5.00E-08	15	0.20001	0.0	0.0	0.0
  37	5.00E-09	5.00E-08	15	0.20001	0.0	0.0	0.0
  38	2.00E-09	5.00E-08	15	0.100005	0.0	0.0	0.0
  39	2.00E-09	5.00E-08	15	0.100005	0.0	0.0	0.0
  40	1.00E-09	5.00E-08	15	0.100005	0.0	0.0	0.0
  41	1.00E-09	5.00E-08	15	0.100005	0.0	0.0	0.0
  42	1.00E-09	5.00E-08	15	0.100005	0.0	0.0	0.0
  43	1.00E-09	5.00E-08	15	0.20001	0.0	0.0	0.0
  44	5.00E-09	5.00E-08	15	0.20001	0.0	0.0	0.0
  45	8.00E-09	5.00E-08	15	0.20001	0.0	0.0	0.0
  46	5.00E-09	5.00E-08	15	0.20001	0.0	0.0	0.0
  47	5.00E-09	5.00E-08	15	0.20001	0.0	0.0	0.0
  48	2.00E-09	5.00E-08	15	0.100005	0.0	0.0	0.0
  49	2.00E-09	5.00E-08	15	0.100005	0.0	0.0	0.0
  50	1.00E-09	5.00E-08	15	0.100005	0.0	0.0	0.0
  51	1.00E-09	5.00E-08	15	0.100005	0.0	0.0	0.0
  52	2.00E-09	5.00E-08	15	0.100005	0.0	0.0	0.0
  53	2.00E-09	5.00E-08	15	0.20001	0.0	0.0	0.0
  54	5.00E-09	5.00E-08	15	0.20001	0.0	0.0	0.0
  55	5.00E-09	5.00E-08	15	0.20001	0.0	0.0	0.0
  56	2.00E-09	5.00E-08	15	0.100005	0.0	0.0	0.0
  57	2.00E-09	5.00E-08	15	0.100005	0.0	0.0	0.0
  58	1.00E-09	5.00E-08	15	0.100005	0.0	0.0	0.0
  59	1.00E-09	5.00E-08	15	0.100005	0.0	0.0	0.0
  60	2.00E-09	5.00E-08	15	0.20001	0.0	0.0	0.0
  61	5.00E-09	5.00E-08	15	0.20001	0.0	0.0	0.0
  62	5.00E-09	5.00E-08	15	0.20001	0.0	0.0	0.0
  63	5.00E-09	5.00E-08	15	0.20001	0.0	0.0	0.0
  64	2.00E-09	5.00E-08	15	0.100005	0.0	0.0	0.0
  65	2.00E-09	5.00E-08	15	0.100005	0.0	0.0	0.0
  66	1.00E-09	5.00E-08	15	0.100005	0.0	0.0	0.0
  67	1.00E-09	5.00E-08	15	0.100005	0.0	0.0	0.0
  68	2.00E-09	5.00E-08	15	0.20001	0.0	0.0	0.0
  69	5.00E-09	5.00E-08	15	0.20001	0.0	0.0	0.0
  70	5.00E-09	5.00E-08	15	0.20001	0.0	0.0	0.0
  71	5.00E-09	5.00E-08	15	0.20001	0.0	0.0	0.0
  72	2.00E-09	5.00E-08	15	0.100005	0.0	0.0	0.0
  73	2.00E-09	5.00E-08	15	0.100005	0.0	0.0	0.0
  74	1.00E-09	5.00E-08	15	0.100005	0.0	0.0	0.0
  75	5.00E-09	5.00E-08	15	0.20001	0.0	0.0	0.0
  76	8.00E-09	5.00E-08	15	0.20001	0.0	0.0	0.0
  77	1.00E-09	5.00E-08	15	0.20001	0.0	0.0	0.0
  78	1.00E-09	5.00E-08	15	0.100005	0.0	0.0	0.0
  79	5.00E-09	5.00E-08	15	0.20001	0.0	0.0	0.0
  80	1.00E-09	5.00E-08	15	0.20001	0.0	0.0	0.0
  81	1.00E-09	5.00E-08	15	0.20001	0.0	0.0	0.0
  82	1.00E-09	5.00E-08	15	0.100005	0.0	0.0	0.0
  83	1.00E-09	5.00E-08	15	0.100005	0.0	0.0	0.0
  84	1.00E-09	5.00E-08	15	0.20001	0.0	0.0	0.0
  85	2.00E-09	5.00E-08	15	0.20001	0.0	0.0	0.0
  86	1.00E-09	5.00E-08	15	0.100005	0.0	0.0	0.0
  87	1.00E-09	5.00E-08	15	0.100005	0.0	0.0	0.0
  88	2.00E-09	5.00E-08	15	0.100005	0.0	0.0	0.0
  89	2.00E-09	5.00E-08	15	0.100005	0.0	0.0	0.0
  90	1.00E-09	5.00E-08	15	0.100005	0.0	0.0	0.0
  91	1.00E-09	5.00E-08	15	0.100005	0.0	0.0	0.0
  92	2.00E-09	5.00E-08	15	0.20001	0.0	0.0	0.0
  93	5.00E-09	5.00E-08	15	0.20001	0.0	0.0	0.0
  94	5.00E-09	5.00E-08	15	0.20001	0.0	0.0	0.0
  95	2.00E-09	5.00E-08	15	0.20001	0.0	0.0	0.0
  96	1.00E-09	5.00E-08	15	0.100005	0.0	0.0	0.0
  97	8.00E-09	5.00E-08	15	0.20001	0.0	0.0	0.0
  98	8.00E-09	5.00E-08	15	0.20001	0.0	0.0	0.0
  99	8.00E-09	5.00E-08	15	0.20001	0.0	0.0	0.0
  100	8.00E-09	5.00E-08	15	0.20001	0.0	0.0	0.0
END	PERIOD							
								
BEGIN	PERIOD	2
#	uzfid	finf	pet	extdp	extwc	rootact			
  1	8.00E-09	5.00E-08	15	0.100005	0.0	0.0	0.0
  2	1.60E-08	5.00E-08	15	0.100005	0.0	0.0	0.0
  3	1.60E-08	5.00E-08	15	0.20001	0.0	0.0	0.0
  4	8.00E-09	5.00E-08	15	0.100005	0.0	0.0	0.0
  5	1.60E-08	5.00E-08	15	0.100005	0.0	0.0	0.0
  6	6.40E-08	5.00E-08	15	0.20001	0.0	0.0	0.0
  7	6.40E-08	5.00E-08	15	0.20001	0.0	0.0	0.0
  8	4.00E-08	5.00E-08	15	0.20001	0.0	0.0	0.0
  9	4.00E-08	5.00E-08	15	0.20001	0.0	0.0	0.0
  10	8.00E-09	5.00E-08	15	0.100005	0.0	0.0	0.0
  11	8.00E-09	5.00E-08	15	0.100005	0.0	0.0	0.0
  12	6.40E-08	5.00E-08	15	0.20001	0.0	0.0	0.0
  13	6.40E-08	5.00E-08	15	0.20001	0.0	0.0	0.0
  14	4.00E-08	5.00E-08	15	0.20001	0.0	0.0	0.0
  15	4.00E-08	5.00E-08	15	0.20001	0.0	0.0	0.0
  16	6.40E-08	5.00E-08	15	0.20001	0.0	0.0	0.0
  17	4.00E-08	5.00E-08	15	0.20001	0.0	0.0	0.0
  18	8.00E-09	5.00E-08	15	0.20001	0.0	0.0	0.0
  19	8.00E-09	5.00E-08	15	0.100005	0.0	0.0	0.0
  20	8.00E-09	5.00E-08	15	0.100005	0.0	0.0	0.0
  21	8.00E-09	5.00E-08	15	0.100005	0.0	0.0	0.0
  22	8.00E-09	5.00E-08	15	0.20001	0.0	0.0	0.0
  23	8.00E-09	5.00E-08	15	0.20001	0.0	0.0	0.0
  24	1.60E-08	5.00E-08	15	0.20001	0.0	0.0	0.0
  25	6.40E-08	5.00E-08	15	0.20001	0.0	0.0	0.0
  26	4.00E-08	5.00E-08	15	0.20001	0.0	0.0	0.0
  27	8.00E-09	5.00E-08	15	0.20001	0.0	0.0	0.0
  28	8.00E-09	5.00E-08	15	0.100005	0.0	0.0	0.0
  29	8.00E-09	5.00E-08	15	0.100005	0.0	0.0	0.0
  30	8.00E-09	5.00E-08	15	0.100005	0.0	0.0	0.0
  31	8.00E-09	5.00E-08	15	0.100005	0.0	0.0	0.0
  32	8.00E-09	5.00E-08	15	0.100005	0.0	0.0	0.0
  33	8.00E-09	5.00E-08	15	0.100005	0.0	0.0	0.0
  34	8.00E-09	5.00E-08	15	0.100005	0.0	0.0	0.0
  35	6.40E-08	5.00E-08	15	0.20001	0.0	0.0	0.0
  36	4.00E-08	5.00E-08	15	0.20001	0.0	0.0	0.0
  37	4.00E-08	5.00E-08	15	0.20001	0.0	0.0	0.0
  38	1.60E-08	5.00E-08	15	0.100005	0.0	0.0	0.0
  39	1.60E-08	5.00E-08	15	0.100005	0.0	0.0	0.0
  40	8.00E-09	5.00E-08	15	0.100005	0.0	0.0	0.0
  41	8.00E-09	5.00E-08	15	0.100005	0.0	0.0	0.0
  42	8.00E-09	5.00E-08	15	0.100005	0.0	0.0	0.0
  43	8.00E-09	5.00E-08	15	0.20001	0.0	0.0	0.0
  44	4.00E-08	5.00E-08	15	0.20001	0.0	0.0	0.0
  45	6.40E-08	5.00E-08	15	0.20001	0.0	0.0	0.0
  46	4.00E-08	5.00E-08	15	0.20001	0.0	0.0	0.0
  47	4.00E-08	5.00E-08	15	0.20001	0.0	0.0	0.0
  48	1.60E-08	5.00E-08	15	0.100005	0.0	0.0	0.0
  49	1.60E-08	5.00E-08	15	0.100005	0.0	0.0	0.0
  50	8.00E-09	5.00E-08	15	0.100005	0.0	0.0	0.0
  51	8.00E-09	5.00E-08	15	0.100005	0.0	0.0	0.0
  52	1.60E-08	5.00E-08	15	0.100005	0.0	0.0	0.0
  53	1.60E-08	5.00E-08	15	0.20001	0.0	0.0	0.0
  54	4.00E-08	5.00E-08	15	0.20001	0.0	0.0	0.0
  55	4.00E-08	5.00E-08	15	0.20001	0.0	0.0	0.0
  56	1.60E-08	5.00E-08	15	0.100005	0.0	0.0	0.0
  57	1.60E-08	5.00E-08	15	0.100005	0.0	0.0	0.0
  58	8.00E-09	5.00E-08	15	0.100005	0.0	0.0	0.0
  59	8.00E-09	5.00E-08	15	0.100005	0.0	0.0	0.0
  60	1.60E-08	5.00E-08	15	0.20001	0.0	0.0	0.0
  61	4.00E-08	5.00E-08	15	0.20001	0.0	0.0	0.0
  62	4.00E-08	5.00E-08	15	0.20001	0.0	0.0	0.0
  63	4.00E-08	5.00E-08	15	0.20001	0.0	0.0	0.0
  64	1.60E-08	5.00E-08	15	0.100005	0.0	0.0	0.0
  65	1.60E-08	5.00E-08	15	0.100005	0.0	0.0	0.0
  66	8.00E-09	5.00E-08	15	0.100005	0.0	0.0	0.0
  67	8.00E-09	5.00E-08	15	0.100005	0.0	0.0	0.0
  68	1.60E-08	5.00E-08	15	0.20001	0.0	0.0	0.0
  69	4.00E-08	5.00E-08	15	0.20001	0.0	0.0	0.0
  70	4.00E-08	5.00E-08	15	0.20001	0.0	0.0	0.0
  71	4.00E-08	5.00E-08	15	0.20001	0.0	0.0	0.0
  72	1.60E-08	5.00E-08	15	0.100005	0.0	0.0	0.0
  73	1.60E-08	5.00E-08	15	0.100005	0.0	0.0	0.0
  74	8.00E-09	5.00E-08	15	0.100005	0.0	0.0	0.0
  75	4.00E-08	5.00E-08	15	0.20001	0.0	0.0	0.0
  76	6.40E-08	5.00E-08	15	0.20001	0.0	0.0	0.0
  77	8.00E-09	5.00E-08	15	0.20001	0.0	0.0	0.0
  78	8.00E-09	5.00E-08	15	0.100005	0.0	0.0	0.0
  79	4.00E-08	5.00E-08	15	0.20001	0.0	0.0	0.0
  80	8.00E-09	5.00E-08	15	0.20001	0.0	0.0	0.0
  81	8.00E-09	5.00E-08	15	0.20001	0.0	0.0	0.0
  82	8.00E-09	5.00E-08	15	0.100005	0.0	0.0	0.0
  83	8.00E-09	5.00E-08	15	0.100005	0.0	0.0	0.0
  84	8.00E-09	5.00E-08	15	0.20001	0.0	0.0	0.0
  85	1.60E-08	5.00E-08	15	0.20001	0.0	0.0	0.0
  86	8.00E-09	5.00E-08	15	0.100005	0.0	0.0	0.0
  87	8.00E-09	5.00E-08	15	0.100005	0.0	0.0	0.0
  88	1.60E-08	5.00E-08	15	0.100005	0.0	0.0	0.0
  89	1.60E-08	5.00E-08	15	0.100005	0.0	0.0	0.0
  90	8.00E-09	5.00E-08	15	0.100005	0.0	0.0	0.0
  91	8.00E-09	5.00E-08	15	0.100005	0.0	0.0	0.0
  92	1.60E-08	5.00E-08	15	0.20001	0.0	0.0	0.0
  93	4.00E-08	5.00E-08	15	0.20001	0.0	0.0	0.0
  94	4.00E-08	5.00E-08	15	0.20001	0.0	0.0	0.0
  95	1.60E-08	5.00E-08	15	0.20001	0.0	0.0	0.0
  96	8.00E-09	5.00E-08	15	0.100005	0.0	0.0	0.0
  97	6.40E-08	5.00E-08	15	0.20001	0.0	0.0	0.0
  98	6.40E-08	5.00E-08	15	0.20001	0.0	0.0	0.0
  99	6.40E-08	5.00E-08	15	0.20001	0.0	0.0	0.0
  100	6.40E-08	5.00E-08	15	0.20001	0.0	0.0	0.0
END	PERIOD							
								
BEGIN	PERIOD	3				
#	uzfid	finf	pet	extdp	extwc	rootact			
  1	1.00E-08	5.00E-08	15	0.100005	0.0	0.0	0.0
  2	2.00E-08	5.00E-08	15	0.100005	0.0	0.0	0.0
  3	2.00E-08	5.00E-08	15	0.20001	0.0	0.0	0.0
  4	1.00E-08	5.00E-08	15	0.100005	0.0	0.0	0.0
  5	2.00E-08	5.00E-08	15	0.100005	0.0	0.0	0.0
  6	8.00E-08	5.00E-08	15	0.20001	0.0	0.0	0.0
  7	8.00E-08	5.00E-08	15	0.20001	0.0	0.0	0.0
  8	5.00E-08	5.00E-08	15	0.20001	0.0	0.0	0.0
  9	5.00E-08	5.00E-08	15	0.20001	0.0	0.0	0.0
  10	1.00E-08	5.00E-08	15	0.100005	0.0	0.0	0.0
  11	1.00E-08	5.00E-08	15	0.100005	0.0	0.0	0.0
  12	8.00E-08	5.00E-08	15	0.20001	0.0	0.0	0.0
  13	8.00E-08	5.00E-08	15	0.20001	0.0	0.0	0.0
  14	5.00E-08	5.00E-08	15	0.20001	0.0	0.0	0.0
  15	5.00E-08	5.00E-08	15	0.20001	0.0	0.0	0.0
  16	8.00E-08	5.00E-08	15	0.20001	0.0	0.0	0.0
  17	5.00E-08	5.00E-08	15	0.20001	0.0	0.0	0.0
  18	1.00E-08	5.00E-08	15	0.20001	0.0	0.0	0.0
  19	1.00E-08	5.00E-08	15	0.100005	0.0	0.0	0.0
  20	1.00E-08	5.00E-08	15	0.100005	0.0	0.0	0.0
  21	1.00E-08	5.00E-08	15	0.100005	0.0	0.0	0.0
  22	1.00E-08	5.00E-08	15	0.20001	0.0	0.0	0.0
  23	1.00E-08	5.00E-08	15	0.20001	0.0	0.0	0.0
  24	2.00E-08	5.00E-08	15	0.20001	0.0	0.0	0.0
  25	8.00E-08	5.00E-08	15	0.20001	0.0	0.0	0.0
  26	5.00E-08	5.00E-08	15	0.20001	0.0	0.0	0.0
  27	1.00E-08	5.00E-08	15	0.20001	0.0	0.0	0.0
  28	1.00E-08	5.00E-08	15	0.100005	0.0	0.0	0.0
  29	1.00E-08	5.00E-08	15	0.100005	0.0	0.0	0.0
  30	1.00E-08	5.00E-08	15	0.100005	0.0	0.0	0.0
  31	1.00E-08	5.00E-08	15	0.100005	0.0	0.0	0.0
  32	1.00E-08	5.00E-08	15	0.100005	0.0	0.0	0.0
  33	1.00E-08	5.00E-08	15	0.100005	0.0	0.0	0.0
  34	1.00E-08	5.00E-08	15	0.100005	0.0	0.0	0.0
  35	8.00E-08	5.00E-08	15	0.20001	0.0	0.0	0.0
  36	5.00E-08	5.00E-08	15	0.20001	0.0	0.0	0.0
  37	5.00E-08	5.00E-08	15	0.20001	0.0	0.0	0.0
  38	2.00E-08	5.00E-08	15	0.100005	0.0	0.0	0.0
  39	2.00E-08	5.00E-08	15	0.100005	0.0	0.0	0.0
  40	1.00E-08	5.00E-08	15	0.100005	0.0	0.0	0.0
  41	1.00E-08	5.00E-08	15	0.100005	0.0	0.0	0.0
  42	1.00E-08	5.00E-08	15	0.100005	0.0	0.0	0.0
  43	1.00E-08	5.00E-08	15	0.20001	0.0	0.0	0.0
  44	5.00E-08	5.00E-08	15	0.20001	0.0	0.0	0.0
  45	8.00E-08	5.00E-08	15	0.20001	0.0	0.0	0.0
  46	5.00E-08	5.00E-08	15	0.20001	0.0	0.0	0.0
  47	5.00E-08	5.00E-08	15	0.20001	0.0	0.0	0.0
  48	2.00E-08	5.00E-08	15	0.100005	0.0	0.0	0.0
  49	2.00E-08	5.00E-08	15	0.100005	0.0	0.0	0.0
  50	1.00E-08	5.00E-08	15	0.100005	0.0	0.0	0.0
  51	1.00E-08	5.00E-08	15	0.100005	0.0	0.0	0.0
  52	2.00E-08	5.00E-08	15	0.100005	0.0	0.0	0.0
  53	2.00E-08	5.00E-08	15	0.20001	0.0	0.0	0.0
  54	5.00E-08	5.00E-08	15	0.20001	0.0	0.0	0.0
  55	5.00E-08	5.00E-08	15	0.20001	0.0	0.0	0.0
  56	2.00E-08	5.00E-08	15	0.100005	0.0	0.0	0.0
  57	2.00E-08	5.00E-08	15	0.100005	0.0	0.0	0.0
  58	1.00E-08	5.00E-08	15	0.100005	0.0	0.0	0.0
  59	1.00E-08	5.00E-08	15	0.100005	0.0	0.0	0.0
  60	2.00E-08	5.00E-08	15	0.20001	0.0	0.0	0.0
  61	5.00E-08	5.00E-08	15	0.20001	0.0	0.0	0.0
  62	5.00E-08	5.00E-08	15	0.20001	0.0	0.0	0.0
  63	5.00E-08	5.00E-08	15	0.20001	0.0	0.0	0.0
  64	2.00E-08	5.00E-08	15	0.100005	0.0	0.0	0.0
  65	2.00E-08	5.00E-08	15	0.100005	0.0	0.0	0.0
  66	1.00E-08	5.00E-08	15	0.100005	0.0	0.0	0.0
  67	1.00E-08	5.00E-08	15	0.100005	0.0	0.0	0.0
  68	2.00E-08	5.00E-08	15	0.20001	0.0	0.0	0.0
  69	5.00E-08	5.00E-08	15	0.20001	0.0	0.0	0.0
  70	5.00E-08	5.00E-08	15	0.20001	0.0	0.0	0.0
  71	5.00E-08	5.00E-08	15	0.20001	0.0	0.0	0.0
  72	2.00E-08	5.00E-08	15	0.100005	0.0	0.0	0.0
  73	2.00E-08	5.00E-08	15	0.100005	0.0	0.0	0.0
  74	1.00E-08	5.00E-08	15	0.100005	0.0	0.0	0.0
  75	5.00E-08	5.00E-08	15	0.20001	0.0	0.0	0.0
  76	8.00E-08	5.00E-08	15	0.20001	0.0	0.0	0.0
  77	1.00E-08	5.00E-08	15	0.20001	0.0	0.0	0.0
  78	1.00E-08	5.00E-08	15	0.100005	0.0	0.0	0.0
  79	5.00E-08	5.00E-08	15	0.20001	0.0	0.0	0.0
  80	1.00E-08	5.00E-08	15	0.20001	0.0	0.0	0.0
  81	1.00E-08	5.00E-08	15	0.20001	0.0	0.0	0.0
  82	1.00E-08	5.00E-08	15	0.100005	0.0	0.0	0.0
  83	1.00E-08	5.00E-08	15	0.100005	0.0	0.0	0.0
  84	1.00E-08	5.00E-08	15	0.20001	0.0	0.0	0.0
  85	2.00E-08	5.00E-08	15	0.20001	0.0	0.0	0.0
  86	1.00E-08	5.00E-08	15	0.100005	0.0	0.0	0.0
  87	1.00E-08	5.00E-08	15	0.100005	0.0	0.0	0.0
  88	2.00E-08	5.00E-08	15	0.100005	0.0	0.0	0.0
  89	2.00E-08	5.00E-08	15	0.100005	0.0	0.0	0.0
  90	1.00E-08	5.00E-08	15	0.100005	0.0	0.0	0.0
  91	1.00E-08	5.00E-08	15	0.100005	0.0	0.0	0.0
  92	2.00E-08	5.00E-08	15	0.20001	0.0	0.0	0.0
  93	5.00E-08	5.00E-08	15	0.20001	0.0	0.0	0.0
  94	5.00E-08	5.00E-08	15	0.20001	0.0	0.0	0.0
  95	2.00E-08	5.00E-08	15	0.20001	0.0	0.0	0.0
  96	1.00E-08	5.00E-08	15	0.100005	0.0	0.0	0.0
  97	8.00E-08	5.00E-08	15	0.20001	0.0	0.0	0.0
  98	8.00E-08	5.00E-08	15	0.20001	0.0	0.0	0.0
  99	8.00E-08	5.00E-08	15	0.20001	0.0	0.0	0.0
  100	8.00E-08	5.00E-08	15	0.20001	0.0	0.0	0.0
END	PERIOD							
								
BEGIN	PERIOD	4			
#	uzfid	finf	pet	extdp	extwc	rootact			
  1	4.00E-08	5.00E-08	15	0.100005	0.0	0.0	0.0
  2	8.00E-08	5.00E-08	15	0.100005	0.0	0.0	0.0
  3	8.00E-08	5.00E-08	15	0.20001	0.0	0.0	0.0
  4	4.00E-08	5.00E-08	15	0.100005	0.0	0.0	0.0
  5	8.00E-08	5.00E-08	15	0.100005	0.0	0.0	0.0
  6	3.20E-07	5.00E-08	15	0.20001	0.0	0.0	0.0
  7	3.20E-07	5.00E-08	15	0.20001	0.0	0.0	0.0
  8	2.00E-07	5.00E-08	15	0.20001	0.0	0.0	0.0
  9	2.00E-07	5.00E-08	15	0.20001	0.0	0.0	0.0
  10	4.00E-08	5.00E-08	15	0.100005	0.0	0.0	0.0
  11	4.00E-08	5.00E-08	15	0.100005	0.0	0.0	0.0
  12	3.20E-07	5.00E-08	15	0.20001	0.0	0.0	0.0
  13	3.20E-07	5.00E-08	15	0.20001	0.0	0.0	0.0
  14	2.00E-07	5.00E-08	15	0.20001	0.0	0.0	0.0
  15	2.00E-07	5.00E-08	15	0.20001	0.0	0.0	0.0
  16	3.20E-07	5.00E-08	15	0.20001	0.0	0.0	0.0
  17	2.00E-07	5.00E-08	15	0.20001	0.0	0.0	0.0
  18	4.00E-08	5.00E-08	15	0.20001	0.0	0.0	0.0
  19	4.00E-08	5.00E-08	15	0.100005	0.0	0.0	0.0
  20	4.00E-08	5.00E-08	15	0.100005	0.0	0.0	0.0
  21	4.00E-08	5.00E-08	15	0.100005	0.0	0.0	0.0
  22	4.00E-08	5.00E-08	15	0.20001	0.0	0.0	0.0
  23	4.00E-08	5.00E-08	15	0.20001	0.0	0.0	0.0
  24	8.00E-08	5.00E-08	15	0.20001	0.0	0.0	0.0
  25	3.20E-07	5.00E-08	15	0.20001	0.0	0.0	0.0
  26	2.00E-07	5.00E-08	15	0.20001	0.0	0.0	0.0
  27	4.00E-08	5.00E-08	15	0.20001	0.0	0.0	0.0
  28	4.00E-08	5.00E-08	15	0.100005	0.0	0.0	0.0
  29	4.00E-08	5.00E-08	15	0.100005	0.0	0.0	0.0
  30	4.00E-08	5.00E-08	15	0.100005	0.0	0.0	0.0
  31	4.00E-08	5.00E-08	15	0.100005	0.0	0.0	0.0
  32	4.00E-08	5.00E-08	15	0.100005	0.0	0.0	0.0
  33	4.00E-08	5.00E-08	15	0.100005	0.0	0.0	0.0
  34	4.00E-08	5.00E-08	15	0.100005	0.0	0.0	0.0
  35	3.20E-07	5.00E-08	15	0.20001	0.0	0.0	0.0
  36	2.00E-07	5.00E-08	15	0.20001	0.0	0.0	0.0
  37	2.00E-07	5.00E-08	15	0.20001	0.0	0.0	0.0
  38	8.00E-08	5.00E-08	15	0.100005	0.0	0.0	0.0
  39	8.00E-08	5.00E-08	15	0.100005	0.0	0.0	0.0
  40	4.00E-08	5.00E-08	15	0.100005	0.0	0.0	0.0
  41	4.00E-08	5.00E-08	15	0.100005	0.0	0.0	0.0
  42	4.00E-08	5.00E-08	15	0.100005	0.0	0.0	0.0
  43	4.00E-08	5.00E-08	15	0.20001	0.0	0.0	0.0
  44	2.00E-07	5.00E-08	15	0.20001	0.0	0.0	0.0
  45	3.20E-07	5.00E-08	15	0.20001	0.0	0.0	0.0
  46	2.00E-07	5.00E-08	15	0.20001	0.0	0.0	0.0
  47	2.00E-07	5.00E-08	15	0.20001	0.0	0.0	0.0
  48	8.00E-08	5.00E-08	15	0.100005	0.0	0.0	0.0
  49	8.00E-08	5.00E-08	15	0.100005	0.0	0.0	0.0
  50	4.00E-08	5.00E-08	15	0.100005	0.0	0.0	0.0
  51	4.00E-08	5.00E-08	15	0.100005	0.0	0.0	0.0
  52	8.00E-08	5.00E-08	15	0.100005	0.0	0.0	0.0
  53	8.00E-08	5.00E-08	15	0.20001	0.0	0.0	0.0
  54	2.00E-07	5.00E-08	15	0.20001	0.0	0.0	0.0
  55	2.00E-07	5.00E-08	15	0.20001	0.0	0.0	0.0
  56	8.00E-08	5.00E-08	15	0.100005	0.0	0.0	0.0
  57	8.00E-08	5.00E-08	15	0.100005	0.0	0.0	0.0
  58	4.00E-08	5.00E-08	15	0.100005	0.0	0.0	0.0
  59	4.00E-08	5.00E-08	15	0.100005	0.0	0.0	0.0
  60	8.00E-08	5.00E-08	15	0.20001	0.0	0.0	0.0
  61	2.00E-07	5.00E-08	15	0.20001	0.0	0.0	0.0
  62	2.00E-07	5.00E-08	15	0.20001	0.0	0.0	0.0
  63	2.00E-07	5.00E-08	15	0.20001	0.0	0.0	0.0
  64	8.00E-08	5.00E-08	15	0.100005	0.0	0.0	0.0
  65	8.00E-08	5.00E-08	15	0.100005	0.0	0.0	0.0