# PCG for MODFLOW, generated by Flopy.
50 200 1 0
1e-09 0.001 0.99 0 1 0 1.0 
