# Discretization file for MODFLOW, generated by Flopy.
         2        51        51        11         4         2  days/meters
  0  0
CONSTANT    5.000000E+01                           #delr                          
CONSTANT    5.000000E+01                           #delc                          
CONSTANT    1.000000E+01                           #model_top                     
CONSTANT   -1.000000E+01                           #botm Layer 1                  
CONSTANT   -2.000000E+01                           #botm Layer 2                  
     10.000000             1  1.000000  SS 
      2.000000             1  1.000000  TR 
      2.000000             1  1.000000  TR 
      2.000000             1  1.000000  TR 
      2.000000             1  1.000000  TR 
      2.000000             1  1.000000  TR 
      2.000000             1  1.000000  TR 
      2.000000             1  1.000000  TR 
      2.000000             1  1.000000  TR 
      2.000000             1  1.000000  TR 
      2.000000             1  1.000000  TR 
