begin options
  digits 10
  print_input
end options

begin Continuous FILEOUT test1tr.sfr.csv
  GAGE1STAGE  STAGE  4
  GAGE2STAGE  STAGE  7
  GAGE3STAGE  STAGE 14
  GAGE4STAGE  STAGE 18
  GAGE5STAGE  STAGE 22
  GAGE6STAGE  STAGE 27
  GAGE7STAGE  STAGE 30
  GAGE8STAGE  STAGE 36
  GAGE9STAGE  STAGE 10 
end Continuous


begin Continuous FILEOUT test1tr.sfr.qaq.csv
  QAQ04   SFR             4
  QAQ07   SFR             7
  QAQ14   SFR             14
  QAQ18   SFR             18
  QAQ22   SFR             22
  QAQ27   SFR             27
  QAQ30   SFR             30
  QAQ36   SFR             36
  QAQ10   SFR             10
end Continuous

begin Continuous FILEOUT test1tr.sfr.flow.csv
  USINF10  UPSTREAM-FLOW   10
  INF10    INFLOW          10
  OUT10    OUTFLOW         10
  DS10     DOWNSTREAM-FLOW 10
  USINF36  UPSTREAM-FLOW   36
  INF36    INFLOW          36
  OUT36    OUTFLOW         36
  EXTOUT36 EXT-OUTFLOW     36
  DS36     DOWNSTREAM-FLOW 36
end Continuous
