# Simulation name file for MODFLOW-2015 prepared by Mf5to15

BEGIN Options
END Options

BEGIN Timing
  TDIS6  test034_nwtp2.tdis
END Timing

BEGIN Models
  GWF6  test034_nwtp2.nam  test034_nwtp2
END Models

BEGIN Exchanges
END Exchanges

BEGIN SOLUTIONGROUP 1
  MXITER  1
  IMS6  test034_nwtp2.ims  test034_nwtp2
END SOLUTIONGROUP
