# RCH8 input file, prepared by mf5to15 on 6/26/2015 at 9:34:42.

BEGIN Options
  READASARRAYS
  SAVE_FLOWS
  FIXED_CELL
END Options

BEGIN PERIOD 1
  RECHARGE
    CONSTANT 0.5000000E-01
END PERIOD
