# WEL8 input file, prepared by MF5to6 on 9/27/2016 at 10:56:52.

BEGIN Options
  PRINT_INPUT
END Options

BEGIN Dimensions
  MAXBOUND  1
END Dimensions

BEGIN PERIOD 1
  3  11  13   -10.000000
END PERIOD
