# DIS8 input file, prepared by MF5to6 on 9/27/2016 at 10:56:52.

BEGIN Options
  LENGTH_UNITS  METERS
END Options

BEGIN Dimensions
  NLAY  5
  NROW  20
  NCOL  25
END Dimensions

BEGIN GRIDDATA
  DELR
    CONSTANT    150.000000        DELR
  DELC
    CONSTANT    205.000000        DELC
  TOP LAYERED
    INTERNAL  FACTOR    1.000000      IPRN  3
   104.1104       104.0107       104.1272       104.0017       104.6196       104.2007       104.5312       104.4968       104.2005       104.2293    
   104.2766       104.9281       104.1814       104.2115       104.5482       104.7901       104.6176       104.9603       104.3160       104.7192    
   104.7051       104.1293       104.9075       104.2114       104.2941    
   104.6378       104.0764       104.8126       104.3985       104.1709       104.3954       104.2453       104.1460       104.4544       104.1051    
   104.6079       104.8204       104.0477       104.5440       104.7022       104.5411       104.7816       104.6274       104.2456       104.6603    
   104.5718       104.3427       104.3663       104.8363       104.9039    
   104.2347       104.9171       104.7489       104.5141       104.0656       104.5293       104.9087       104.6990       104.2015       104.2472    
   104.5320       104.1214       104.9852       104.4920       104.4679       104.0148       104.6480       104.7139       104.2066       104.6471    
   104.5927       104.6208       104.9920       104.6375       104.3610    
   104.9684       104.4507       104.1812       104.5127       104.7558       104.8162       104.1903       104.0372       104.2879       104.5740    
   104.4703       104.5351       104.8701       104.0366       104.8779       104.2707       104.6128       104.8068       104.4746       104.2282    
   104.8049       104.4945       104.1895       104.3577       104.7755    
   104.9957       104.9569       104.0726       104.5030       104.7028       104.8444       104.6318       104.1678       104.7431       104.0466    
   104.6289       104.0204       104.0905       104.5192       104.4844       104.9996       104.9310       104.4739       104.0631       104.6751    
   104.5650       104.4032       104.7052       104.8826       104.5988    
   104.1255       104.9486       104.8759       104.7219       104.9750       104.6123       104.6924       104.4081       104.9623       104.8792    
   104.0668       104.7411       104.1213       104.1265       104.7306       104.5768       104.7302       104.9189       104.4462       104.5066    
   104.7162       104.3515       104.8507       104.5036       104.3248    
   104.4637       104.7530       104.1837       104.3389       104.1196       104.2082       104.1362       104.2330       104.8351       104.9529    
   104.3318       104.7845       104.9928       104.3253       104.2689       104.2941       104.4570       104.4885       104.4218       104.6607    
   104.7724       104.3456       104.1507       104.9548       104.9733    
   104.2474       104.8836       104.5853       104.3768       104.6858       104.1993       104.3568       104.9292       104.9376       104.3603    
   104.1818       104.1292       104.5542       104.4043       104.1628       104.8176       104.7054       104.5835       104.5359       104.0420    
   104.4608       104.4603       104.7174       104.1604       104.0431    
   104.4276       104.3180       104.2016       104.9189       104.3802       104.6155       104.7188       104.2555       104.8375       104.6980    
   104.2625       104.5306       104.8747       104.3852       104.9936       104.8036       104.3021       104.2212       104.1773       104.8170    
   104.7812       104.3655       104.1266       104.7625       104.0971    
   104.4029       104.7770       104.2009       104.6400       104.8510       104.1223       104.9254       104.4776       104.8313       104.7337    
   104.9599       104.9111       104.7583       104.3593       104.9180       104.2015       104.5432       104.6350       104.6317       104.6538    
   104.8886       104.1067       104.6954       104.5051       104.2926    
   104.7638       104.9239       104.6087       104.0499       104.9762       104.9283       104.4795       104.9628       104.7188       104.3046    
   104.6912       104.5971       104.0518       104.3948       104.7769       104.2435       104.5217       104.5879       104.1034       104.0280    
   104.3208       104.0626       104.4872       104.1871       104.3286    
   104.8770       104.4104       104.6321       104.6280       104.2541       104.5297       104.0870       104.4727       104.5129       104.9934    
   104.2452       104.1099       104.1335       104.0076       104.5233       104.7744       104.6767       104.9346       104.4201       104.8382    
   104.3206       104.9731       104.5418       104.5612       104.2796    
   104.0924       104.8536       104.6297       104.2847       104.9280       104.8433       104.2570       104.8266       104.5609       104.7532    
   104.0984       104.1993       104.4448       104.3812       104.2063       104.4287       104.4233       104.4351       104.4164       104.6154    
   104.2020       104.0700       104.3061       104.8596       104.1328    
   104.3605       104.7114       104.0899       104.7328       104.4973       104.1501       104.5107       104.9374       104.4113       104.3380    
   104.9062       104.6174       104.7015       104.2446       104.1256       104.4687       104.0008       104.1586       104.7646       104.6516    
   104.0953       104.7715       104.6163       104.7886       104.8332    
   104.8862       104.3400       104.8444       104.9278       104.4811       104.5055       104.1848       104.0325       104.0083       104.7875    
   104.9080       104.7555       104.2394       104.3967       104.6524       104.8929       104.1592       104.2713       104.6886       104.9670    
   104.4600       104.9916       104.5411       104.9720       104.4140    
   104.9820       104.1952       104.7643       104.2672       104.0827       104.6067       104.4527       104.9790       104.0356       104.0568    
   104.3109       104.5406       104.7561       104.6847       104.7212       104.8977       104.3869       104.0772       104.1081       104.7716    
   104.4853       104.7576       104.8369       104.1962       104.9719    
   104.8241       104.7057       104.1545       104.8284       104.7258       104.8881       104.8677       104.0750       104.8759       104.8059    
   104.0113       104.6666       104.1303       104.3872       104.5257       104.7587       104.8836       104.3696       104.9126       104.5584    
   104.4291       104.6359       104.8181       104.3168       104.9540    
   104.6843       104.2685       104.3525       104.9553       104.6359       104.0282       104.3168       104.2756       104.0898       104.2239    
   104.2376       104.5642       104.3780       104.4551       104.1519       104.5698       104.1637       104.1870       104.7593       104.2059    
   104.4696       104.2381       104.6608       104.7609       104.7057    
   104.2904       104.9281       104.5826       104.8444       104.8400       104.6881       104.5090       104.1998       104.9953       104.2179    
   104.3799       104.6340       104.9555       104.7080       104.1350       104.5229       104.8148       104.4019       104.7038       104.0857    
   104.2624       104.1581       104.7329       104.7255       104.9324    
   104.2591       104.4288       104.3924       104.4175       104.6311       104.2479       104.3014       104.6867       104.8948       104.4795    
   104.9434       104.3658       104.0608       104.6728       104.3030       104.0666       104.8134       104.2177       104.6349       104.6603    
   104.0675       104.0268       104.8298       104.2932       104.6287    
  BOTM LAYERED
    INTERNAL  FACTOR    1.000000      IPRN  3
   93.04234       93.28905       94.10601       92.71271       92.76950       93.36842       92.61677       94.05334       92.49016       92.52077    
   93.60755       93.41281       92.39748       92.69069       92.73595       93.86007       94.24644       93.38657       93.56385       93.19320    
   93.41077       92.86045       94.06888       92.78683       93.62032    
   93.83193       93.64849       93.51243       94.29613       92.82458       94.33798       94.22132       93.12964       92.71865       93.59379    
   94.50010       93.84296       93.16555       93.62600       94.30387       92.78977       92.88285       94.61452       92.34795       93.48344    
   92.87772       93.28973       93.14992       93.75690       93.40881    
   94.02624       94.05067       93.53322       93.45692       92.76893       93.82745       93.07928       93.93149       92.83185       92.72558    
   93.65587       93.58132       93.31377       92.81274       93.74122       92.43798       94.39071       94.38244       92.74860       93.76468    
   93.27759       93.16740       93.39838       94.50446       94.33212    
   93.60130       92.88400       93.20904       94.47220       93.24803       94.16225       92.27390       92.11850       93.97513       92.66046    
   92.83789       94.12576       94.14998       93.84746       93.44866       92.38710       94.05317       94.68835       93.47926       93.95506    
   94.79330       93.93512       93.88230       92.52531       93.97813    
   94.31622       92.96642       92.99223       93.34315       93.37360       93.58915       93.18385       92.41013       93.19817       93.43923    
   93.27061       93.19726       92.99475       93.92278       93.21536       93.94154       94.76075       93.12830       93.48261       92.82993    
   92.84141       92.52635       94.17007       93.03329       93.67846    
   93.14777       93.29210       93.05083       93.97314       94.56087       92.96412       92.70165       93.60480       94.62745       93.19667    
   94.02787       93.66548       93.27556       93.38953       93.31167       94.51407       93.53444       94.32198       94.38129       93.90731    
   93.42994       94.27366       94.17521       92.54112       93.43317    
   93.53874       94.11649       93.33074       94.20822       92.78973       92.78428       93.44136       92.66373       93.83940       94.48868    
   93.13666       93.59491       94.51173       92.63063       94.18256       93.77846       92.48653       94.05521       92.76537       93.57113    
   94.57661       93.72961       92.87624       93.23539       93.96500    
   92.56766       94.78394       94.00186       92.74612       94.06089       94.04520       93.26641       93.73513       94.13800       92.37274    
   92.53933       93.84962       93.89640       92.67504       93.99487       93.43233       94.06341       93.30831       94.48383       93.10968    
   93.43240       93.13081       93.59525       94.10232       92.40969    
   94.26547       93.43757       92.94655       94.71331       93.47727       93.44283       93.95976       92.65957       94.25252       94.46017    
   93.97546       94.43814       94.54276       92.82194       93.80231       94.14965       94.14000       92.61185       92.43031       94.72795    
   94.47907       92.54156       93.37408       93.73051       92.38827    
   92.47088       92.88198       92.86395       94.55402       93.10484       92.39865       94.67558       94.33498       93.15156       93.53557    
   94.53280       94.82594       93.71306       93.82423       94.04755       92.35113       92.63374       92.74403       94.45290       93.97900    
   93.57864       92.44781       93.44698       92.83084       92.56334    
   93.24664       94.33868       92.69065       92.49566       93.23325       93.61827       93.36655       93.68874       93.81146       93.66433    
   94.21806       94.14579       92.81801       92.89967       94.12457       93.64604       93.54276       92.74092       93.44327       93.42445    
   93.81934       93.00443       94.24272       93.45120       92.40901    
   94.53406       92.63451       94.18611       94.07830       94.16819       93.61683       92.81922       92.74737       93.12010       93.71886    
   93.37260       92.37067       92.65077       92.19399       94.29064       94.50526       92.86552       94.25852       93.11880       93.05547    
   93.73753       93.14850       93.02714       92.88743       93.03862    
   93.70802       93.53501       94.28811       94.04716       93.81625       93.17461       92.36870       94.45494       93.77535       93.88455    
   93.17437       92.95075       93.22296       92.48290       92.23929       92.57401       94.34445       94.12947       93.42160       94.40618    
   93.33961       93.19057       92.66542       93.59332       93.52648    
   93.37411       94.60126       94.06085       93.74299       94.45436       92.86368       93.30183       94.37562       94.08990       93.20885    
   93.46013       92.84254       94.31370       94.08269       92.56052       92.93992       92.99279       93.85622       94.68018       94.19129    
   93.28590       93.59077       92.74055       94.77704       93.17103    
   94.30563       92.50437       93.09461       93.80858       92.65501       93.63833       92.30801       93.25648       92.96193       92.95034    
   93.68920       94.58747       93.34601       94.28630       93.32927       94.31989       92.73227       92.55347       93.61185       93.66503    
   93.21958       93.08559       93.10677       93.12984       92.49650    
   93.08183       92.48646       93.40137       92.48922       93.15424       92.76641       92.61973       93.66795       92.31792       94.05042    
   92.58882       93.53885       93.10117       94.66241       93.56735       93.61517       93.63292       92.67621       92.69704       93.81683    
   92.90346       94.32579       93.42947       93.11241       94.71669    
   94.30243       93.22897       92.23976       93.60970       93.18733       94.03062       93.98816       92.86689       93.84562       93.70698    
   93.38082       94.06442       92.18322       92.69674       93.55866       94.24178       94.37395       94.18398       94.18003       92.93170    
   92.60159       93.17323       94.45159       94.07754       94.81212    
   93.79617       93.60040       92.73927       93.30650       93.95043       93.87142       92.37784       93.52602       92.31255       94.15834    
   93.13015       93.60937       92.96925       94.23850       93.71898       93.84953       93.55653       93.69235       93.56515       92.89463    
   94.40936       93.22995       93.31417       94.62073       94.30568    
   93.33928       93.38605       92.69936       94.04631       93.50094       92.98572       93.67862       93.47556       93.84482       93.28333    
   92.47322       92.69932       93.22226       93.79827       92.61179       92.86610       93.76074       93.53815       93.41799       92.69519    
   92.31180       92.98132       93.88412       93.16429       93.85824    
   93.05393       92.55260       93.88006       93.18552       93.73822       92.70281       93.25392       94.53771       94.36702       92.64780    
   93.49241       93.62807       92.11864       94.56616       93.06082       93.81612       94.76050       94.10345       93.26337       93.87547    
   92.48060       93.96033       93.62759       92.47281       93.41071    
    INTERNAL  FACTOR    1.000000      IPRN  3
   82.70496       81.96502       83.71983       81.04665       82.53342       81.67113       81.48717       83.58656       82.00352       82.40540    
   81.88445       82.88235       81.48295       82.37031       82.45789       82.61133       84.06089       82.34042       82.73453       82.05768    
   82.19323       82.74236       83.74438       81.22186       82.55523    
   82.17284       82.52506       83.07616       82.68829       81.72287       83.05338       82.62257       82.78889       80.93805       83.18914    
   84.30801       83.19263       81.44282       83.48064       84.27653       81.15108       82.13834       84.30264       80.81261       82.57092    
   82.35160       82.84293       81.85242       82.11165       81.88377    
   83.33688       83.04452       81.87135       82.02240       81.16450       83.15487       82.77428       81.95911       82.42050       81.07633    
   82.15337       83.08247       81.96448       81.27708       82.78813       81.18524       83.07796       84.22192       81.61832       82.10104    
   82.54078       82.91983       82.82202       83.23337       83.19978    
   83.06007       81.69959       83.00648       83.07066       83.14925       83.69336       81.32695       81.37386       83.80843       82.46905    
   81.40174       82.12739       83.81271       83.68062       82.10505       81.54704       82.90919       83.25891       82.68964       82.25552    
   84.31136       82.71651       83.58083       82.48029       82.15569    
   82.42766       82.51401       81.36906       83.28534       83.30424       81.77354       82.62153       82.32681       81.59080       82.93036    
   81.41470       82.23789       82.83358       83.74108       82.30183       82.30390       83.04182       82.54436       82.27027       80.97297    
   82.42792       81.74612       83.95330       82.36980       81.83801    
   81.74405       82.44339       81.23833       82.03828       84.11111       82.21693       81.12002       83.47236       82.89011       82.34384    
   82.55492       83.33609       82.10644       81.65125       82.47181       82.59263       82.66763       82.85935       83.51514       83.42181    
   83.28210       83.91830       83.50238       81.58399       83.13620    
   82.13882       83.98460       81.88215       83.20292       82.44802       80.97236       82.35613       81.74976       82.70917       83.08456    
   81.42704       82.83566       82.67501       82.05637       82.52587       82.05624       81.80297       83.93632       81.88052       83.53649    
   84.16146       83.12182       82.08421       82.18533       82.18606    
   80.58220       84.02323       82.32911       81.68007       82.86324       82.64505       82.98471       82.85637       83.85161       81.80750    
   82.45051       82.13727       82.52843       81.55334       83.70133       83.33891       82.39420       82.30024       84.04741       82.41806    
   82.85619       81.17345       82.55833       83.75684       81.14049    
   82.79509       81.99641       81.10558       84.44237       82.13294       82.96213       83.48682       81.68841       82.98811       82.49851    
   82.36617       83.06094       82.81685       82.78452       83.55202       83.03522       83.29726       81.49358       81.35072       83.12935    
   82.49397       81.15748       83.32772       81.73906       82.03520    
   81.91940       82.38294       80.94955       82.64506       81.83864       80.40711       83.79177       83.04216       82.86825       82.13834    
   83.56188       84.26579       81.93181       83.65489       83.47179       82.02010       81.88750       82.65666       83.71783       83.73353    
   82.30254       80.94555       83.43465       82.70651       82.25186    
   82.37091       82.42707       81.56692       82.42723       82.41907       83.32114       82.41646       83.54778       82.88961       82.47036    
   82.36425       82.47083       82.69473       82.34120       82.98299       82.69634       82.24594       81.19376       82.83216       83.18941    
   82.96332       81.53354       83.82843       82.59457       81.80039    
   82.86778       80.64911       83.02026       82.14793       84.05053       81.85071       81.68391       81.57793       82.36990       82.41582    
   82.86316       81.35215       81.11475       80.98254       82.89333       82.78467       82.40177       83.66435       82.92222       82.25834    
   82.93808       82.22698       81.22181       82.36179       82.77427    
   83.09258       82.89848       82.33435       82.72543       83.28055       82.52107       81.30051       82.91839       82.13848       83.00081    
   82.30891       81.44221       82.29074       81.17233       80.27129       82.36800       82.43519       83.70908       81.48027       82.57124    
   81.89408       82.42696       80.70076       81.62495       82.63541    
   81.82346       82.78451       83.62528       83.69170       82.55448       82.30296       82.38894       84.13239       83.89290       81.76701    
   81.91344       82.03880       82.53937       82.50427       82.09395       82.66046       81.82252       83.82011       83.10638       83.56973    
   82.83694       81.75098       82.57739       84.69934       82.61754    
   83.30624       82.14512       82.17538       83.78925       81.47241       82.30343       81.44009       81.87019       81.80785       81.21077    
   82.53514       83.30233       82.75053       82.66229       82.96586       83.29598       81.29433       81.32478       83.16915       81.78587    
   83.00772       82.07978       82.74387       81.97711       82.48229    
   81.67624       81.86456       83.16486       81.66776       81.16077       80.83421       82.49286       81.92324       80.69287       82.62462    
   82.31223       82.30864       82.20937       82.70945       82.48681       81.63189       81.67929       82.20461       81.07108       82.41514    
   82.73327       84.26789       82.93727       82.12653       83.46619    
   83.18098       82.66237       80.39584       83.57448       82.83011       83.49219       82.68909       82.10317       81.88322       82.72410    
   81.98638       82.19196       81.02971       81.57970       82.12937       82.50383       83.30168       83.02135       82.67978       82.50825    
   82.12363       82.70728       82.91568       82.21947       83.28638    
   83.23127       83.36073       82.52951       82.25726       82.36483       83.41328       81.22968       82.54185       81.12959       83.61192    
   81.87281       83.21222       82.74222       82.88010       82.75496       82.02876       82.85110       83.38023       82.07153       81.62697    
   83.29224       82.47057       82.07819       83.35515       83.49610    
   82.75517       83.02057       81.54121       83.81501       82.99074       82.13576       81.76249       82.99274       83.01350       82.89321    
   82.06221       81.54809       82.72145       82.09988       81.09282       80.94238       83.53916       82.27843       81.45557       81.03801    
   81.62561       81.16296       83.72924       82.79331       81.95273    
   81.99543       80.63704       83.87299       83.17801       83.38329       81.58578       82.10893       82.78490       82.99992       81.68598    
   81.84161       83.60612       80.88831       83.48232       82.14352       82.77058       84.64311       83.21258       82.54806       83.66314    
   81.73711       83.08244       81.92540       82.01012       82.06935    
    INTERNAL  FACTOR    1.000000      IPRN  3
   71.63081       70.54765       71.95464       69.76208       71.64661       70.36903       70.75950       73.40298       71.14195       70.88281    
   70.66669       71.71336       69.76580       72.30865       71.25011       71.74271       73.60523       71.83199       70.78268       71.47083    
   70.44105       72.07240       73.04261       71.10935       71.73146    
   71.47239       70.85125       71.99604       71.91289       71.53775       72.71730       72.18739       71.41290       69.59440       72.76106    
   72.99124       71.38251       71.27457       73.17737       73.74261       69.98948       70.48343       73.15975       68.99989       71.37239    
   71.41840       72.50901       69.90987       71.08515       71.09153    
   72.23080       71.26871       71.27036       71.29462       70.68891       71.55003       71.80842       70.36562       72.33844       70.85883    
   71.79168       71.11639       71.29416       69.55195       72.38524       70.55808       72.85966       73.35622       70.27557       71.90456    
   71.55412       71.59628       72.23662       72.51906       72.72070    
   71.90592       70.73219       72.14827       71.29420       71.37316       72.05299       69.92364       70.30606       72.63379       71.90922    
   70.18156       70.56216       73.58498       71.75311       71.33906       70.83277       71.53636       71.39347       71.09498       70.73615    
   72.62012       72.19765       73.22051       71.37146       70.98102    
   70.48451       71.60914       69.60359       71.64828       71.72565       70.28999       71.18935       71.66848       71.05240       71.02757    
   70.18379       70.27925       70.97464       73.52024       71.11617       70.83523       71.43168       71.60721       71.00948       69.22077    
   71.78643       70.97973       73.94414       71.76131       71.72310    
   71.68044       71.25906       69.58623       71.63911       72.27589       70.85452       69.24141       71.56004       71.42546       70.65800    
   70.91611       72.78489       71.71346       70.58260       71.67844       70.82568       72.43736       71.27644       71.89895       71.53812    
   72.64178       72.32649       72.06605       70.59859       71.32877    
   72.09819       72.61393       70.14082       71.56302       72.17833       69.94253       72.12359       70.68344       71.19658       72.86427    
   70.53528       71.87045       71.44342       71.85313       70.77526       71.59866       70.47245       72.47286       70.99288       73.41143    
   73.95958       71.84729       71.93928       71.40914       70.74217    
   69.71776       72.84890       70.84258       69.79628       72.62708       71.65950       71.20581       72.11681       73.46075       71.50959    
   71.00434       70.43528       72.51625       69.94441       72.57202       72.56165       71.55746       71.65787       72.52650       72.17866    
   71.35817       70.67641       71.95171       72.07861       71.02910    
   71.43324       71.08642       70.32059       72.90195       70.21906       71.22866       72.44884       70.16939       72.18848       72.46307    
   71.26442       71.99910       72.28796       71.59945       72.97886       72.43068       73.06464       70.14074       70.57597       71.83147    
   72.18795       70.24282       71.54327       71.31992       72.02831    
   71.34550       71.60054       69.68778       72.16512       71.22318       70.19039       72.57420       71.66846       72.31702       70.62267    
   72.98841       74.20575       71.04050       72.53595       73.17705       71.02441       70.63620       71.79746       72.37112       72.03043    
   71.67066       69.30482       72.88604       71.94690       71.06041    
   71.69606       70.70414       70.36417       71.34595       70.64595       73.29761       71.47389       72.08596       71.58759       71.49252    
   72.31104       71.90986       72.43555       71.23310       72.35052       70.89230       72.23870       69.51215       71.24504       73.18760    
   71.75026       70.42350       72.58722       72.53617       70.92364    
   72.85516       68.88017       72.02869       70.81283       73.86325       70.47045       71.30122       71.12137       70.83509       71.24236    
   71.23927       70.82851       71.08277       69.48076       71.38135       72.17474       70.73180       71.90556       70.96899       71.21537    
   72.64815       70.26562       69.45187       71.75549       71.57620    
   71.60906       72.46462       72.04259       72.06332       73.25651       71.77844       70.46405       72.74400       71.22462       71.75425    
   70.38293       69.58710       72.18346       69.48035       68.28767       70.59700       70.57853       71.82954       70.23154       70.57836    
   71.88522       70.54478       70.17094       70.38326       70.96171    
   70.78915       72.12238       72.76350       72.97496       72.06826       70.65360       71.01506       74.01052       72.68063       71.08739    
   70.79473       70.97541       71.57656       71.21408       71.26952       71.25364       70.13343       73.22936       71.29916       71.57408    
   72.28979       71.45832       70.89563       73.27969       72.06798    
   72.36584       70.45240       71.70777       73.30204       71.40117       71.83407       70.01221       70.14696       70.52245       70.78669    
   71.15827       73.26216       71.26735       71.89898       72.37348       71.41826       70.12629       70.70983       72.61565       71.75620    
   72.50356       71.60018       72.49533       71.76649       71.41697    
   70.03791       69.87035       71.84989       71.41621       69.33392       70.28903       71.07719       70.68280       70.21288       72.49832    
   71.71999       71.20226       70.95905       71.06359       71.65125       71.46706       70.71117       70.85830       69.37394       70.69302    
   71.14868       72.69028       72.91968       71.64722       73.29237    
   71.82049       71.61849       68.72613       71.70929       71.05378       72.57074       72.21532       71.90623       70.06738       70.76311    
   71.98306       71.02960       70.62073       70.46160       70.91643       72.25069       72.97457       72.45027       71.23221       71.93536    
   72.01791       71.74141       71.46919       70.45244       71.34749    
   72.01764       72.19543       71.36026       70.28123       72.25705       71.41937       70.19179       71.52596       70.62458       72.72316    
   71.37405       73.16271       71.30005       71.80039       71.33384       70.45377       72.48182       72.96677       70.31823       70.79124    
   73.20629       72.17805       70.17415       72.37140       72.18779    