# NPF8 input file, prepared by MF5to6 on 9/27/2016 at 10:56:52.

BEGIN Options
  PERCHED
  VARIABLECV  DEWATERED
  SAVE_FLOWS
END Options

BEGIN GRIDDATA
  Icelltype LAYERED
    CONSTANT  1
    CONSTANT  1
    CONSTANT  1
    CONSTANT  1
    CONSTANT  1
  k  LAYERED
    INTERNAL  FACTOR  1.0  IPRN  12
   76.52959       97.33066       36.80293       16.15590       12.22310       39.05836       81.70965       82.38404       77.76012       33.45383    
   73.80914       87.62066       58.31499       1.513052       4.482543       21.73246       75.51432       36.93594       39.33138       21.19168    
   74.10696       81.15242       51.31891       27.59793       34.15269    
   80.18483       34.37285       87.10328       37.92762       22.40939       91.56404       26.16452       97.63177       25.58133       8.400629    
   63.51565       57.87908       38.16433       80.40213       12.08980       25.76195       91.29850       26.91626       4.821637       30.29458    
   10.49620       45.81735       50.23264       69.59903       44.82977    
   37.29337       33.79029       88.73717       46.23148       93.26711       25.90857       31.91559       82.27419       26.31646       45.24369    
   83.16909       83.27790       86.58913       9.750256       19.75364       28.33045       94.90710       28.76863       82.22023       19.98999    
   89.59116       56.06170       58.99408       49.21421       3.431389    
   34.48910       73.10603       6.778100       52.94693       58.21932       85.84573       25.18962       19.56816       95.11516       42.66015    
   98.49509       82.68031       40.63436       51.52961       13.74311       14.29563       93.06986       65.04380       73.80740       79.81445    
   44.10634       9.104995       22.27844       78.73271       68.50009    
   87.86996       23.96317       46.08335       79.23621       98.86787       51.36557       23.39233       41.99710       4.843565       90.44017    
   57.23314       43.43667       99.21809       9.434430       79.06915       90.63585       40.53061       99.33691       37.00940       84.88430    
   75.34134       99.01310       19.05404       40.11299       63.97141    
   32.37122       34.85152       74.64754       40.22842       46.32113       17.34466       48.03852       83.32024       21.51985       11.91000    
   50.34475       65.32910       4.461108       6.238843       80.57948       72.63657       9.425712       22.65300       15.04530       26.28742    
  0.3354444       6.081260       63.00871       42.95003       52.15575    
   43.28030       65.74585       69.98029       98.02253       89.85104       9.738583       55.51264       47.24268       35.01954       92.11070    
   51.79297       3.154445       32.56910       28.73291       60.23233       78.81002       22.45762       39.05648       88.19903       39.21812    
   42.33543       25.33632       73.16106       18.11310       56.77633    
   56.21436       27.85482       52.98669       40.84722       17.37487       49.33689       82.16683       94.49700       41.63183       80.06231    
   10.38566       26.03341       2.360740       3.654159       77.43894       16.60508       26.97556       67.68420       84.39899       75.89758    
  0.1182359       86.84373       56.82511       33.44505       15.55616    
   97.57183       30.96339       16.67892       94.69167       84.96696       41.09055       32.94333       65.16111       56.29776       16.73412    
   77.60320       28.58861       80.72060       67.08430       30.61179       94.28364       67.84020       75.45304       92.61154       49.73370    
   5.961915       10.09399       77.29358       66.40672       45.16175    
   8.913141       72.36814       69.85525       55.68989       48.98455       58.19520       6.912745       82.65535       36.18875       15.26763    
   35.63822       85.78067       26.11003       92.37572       81.71992       91.49349       51.88794       78.54037       93.16836       62.26084    
   67.07199       32.36111       57.84077       93.43087       71.71069    
   49.61144       36.97537       51.05886       22.04191       81.41728       78.33339       12.96770       31.18155       4.065636       62.30023    
   70.79805       6.360703       41.29236       23.80761       96.87450       45.71942       62.50530       6.539313       30.06008       84.28126    
   21.78845       78.87638       7.353329       76.21155       88.31007    
   26.41999       50.60016       71.86912       41.80330       20.85320       36.33828       69.33196       68.89758       63.39498       98.13818    
   47.55032       13.90543       54.71482       25.87524       44.39102       74.70609       96.90954       30.81280       81.24553       95.49170    
   18.28483       18.38871       41.85344       20.64958       74.65946    
   71.80792       27.31838       75.69341       57.13281       87.05350       11.81680       5.874368       72.28585       36.07129       17.85487    
   8.080952       85.31190       99.68825       94.48679       43.09617       36.69973       57.37753       24.79456       28.74317       7.656532    
   80.62154       95.76097       75.05337       69.94093       90.12928    
   26.89022       18.57132       42.06901       26.25238       26.05054       84.96526       72.40642       10.60515       59.89984       12.83576    
   72.68447       16.31816       41.45459       96.50064       47.44793       12.48646       84.08214       44.61404       66.90768       30.54015    
   78.89066       94.76894       41.49271       21.54646       69.41540    
   68.07552       80.50675       11.00966       19.20251       24.78439       95.64767       28.93924       89.92713       93.60292       81.87888    
   24.51365       32.33874       59.06023       84.88835       47.32212       76.63250       83.20800       57.92804       72.98031       19.69996    
   50.26253       29.23697       92.06223       56.21329       29.89187    
   72.27536       39.92135       49.03131       36.54454       97.39348       87.13361       9.963218       71.69154       54.77412       13.89533    
   83.49227       46.43088       67.83637       5.214559       14.30879       6.816377       40.70424       77.89778       12.98615       58.52864    
   54.93004       54.72644       32.10277       44.77987       46.34477    
   58.11201       39.19405      0.2228539       61.89192       25.16144       64.31121       22.98345       6.705070      0.9943345       5.395810    
   80.79568       79.16962       90.14474       72.79715       24.16873       80.63816       74.30804       54.30677       26.55818       47.95881    
   72.38853       92.12823       36.02886       58.78377       54.89169    
   10.37356       4.242046       34.56911       82.44788       20.55061       50.15871       90.12091       94.10488       50.04177       18.70025    
   63.11761       67.71954       96.11534       16.97975       70.48014       97.29051       94.54546       28.95124       20.52441       46.34692    
   12.22236       35.37078       23.55255       19.72203       67.28304    
   1.796605       61.38856       44.91829       6.991232       81.87069       65.13742       53.10774       85.41494       72.55479       87.29955    
   31.62579       71.30090       77.58920       62.76704       19.36657       45.15444       91.79049       45.81662       63.73304       18.13335    
   91.99435       56.18560       64.47816       27.91937       41.59624    
   95.04377       4.918151       63.15414       59.82795       15.18149       72.91418       1.941991       24.44428       41.70784       49.53746    
   98.65321       18.76424       16.68495       13.38976       86.19225       45.56243       89.74924       33.25999       79.72961       46.89176    
   12.99028       43.46362       55.19690       73.83762       11.92402    
    INTERNAL  FACTOR  1.0  IPRN  12
   14.54769       50.70408       88.45093       86.75832       65.50542       40.56287       1.940953       96.34614       10.12483       71.11242    
   93.05116       98.19444       99.31413       90.08708       61.26458       33.77064       42.45238       3.198165       84.16122       28.84487    
   69.73158       16.16985       19.48449       35.79218       91.93293    
   33.10216       18.75643       74.26868       51.32552       89.60612       85.39008       35.97839       59.78923       24.55456       30.66286    
   99.95565       86.40046       27.58580       15.19567       94.23775       2.509672       21.47443       95.39034       15.62474       69.19210    
   64.04910       38.98823       70.13322       3.940459       51.81237    
   64.43479       52.44995       86.07708       80.26780       34.27309       5.460643       63.15434       25.57619       48.62333       27.15743    
   85.94088       17.90285       11.15503       91.84696       89.92792       53.26720       8.792388       30.57769       89.25345       74.05861    
   33.81115       80.95693       59.28718       4.949674       53.73528    
   21.76175       2.086122       53.35465       66.43156       94.09881       51.99755       97.34355       79.07299       95.25135       62.66713    
   23.58096       25.18880       87.20573       5.203771       7.297692       60.20985       31.29607       32.73717       44.89320       68.65777    
   43.12816       31.18406       51.92025       48.42954       15.81944    
   87.88165       73.36013       58.59712       97.65485       42.24163       13.20135       33.96921       78.23792       87.03008       75.42962    
   59.28087       33.07919       98.02350       67.32671       73.88615       82.86574       16.73620       69.15244       49.72342       20.91515    
   27.77761       80.57841       66.41656       12.25162       69.36811    
   8.415492       23.24591       56.19192       87.39212       44.26427       51.77645       14.40870       46.40509       20.06725       43.46030    
   28.74145       30.98567       48.63136       73.91613       20.72510       28.45036       81.02890       99.80179       87.08288       56.34562    
   69.17194       78.22544       91.89354       17.11956       55.20244    
   32.17006       32.28030       2.355549       87.25890       99.92986       67.99798       37.03373       98.71523       23.19331       17.17235    
   88.64290       72.09905       90.33103       7.878680       47.72612       3.253437       91.43372       74.20599      0.6497023       86.88229    
   40.35527       93.97173       94.30058       27.86659       39.58643    
   15.09614       75.91564       14.76954       62.46836       66.31204       89.28217       29.05516       90.88442       84.43571       68.70888    
   91.83250       22.04617       47.06563       82.83686       44.91257       43.49712       45.26196       51.37901       90.69458       6.352247    
   51.48064       96.69599       27.91022       31.25316       29.42381    
   1.645521       22.93367       52.39988       88.79158       79.91211       48.38175       97.00449       77.30054       18.64209       2.296968    
   58.06474       22.55104       79.92705       65.35874       27.88037       38.81546       83.35480       7.910596       71.94820       28.44409    
   99.33257       68.93520       79.45732       79.38446       5.856089    
   70.60811       60.06310       66.83632       69.93116       57.01398       68.08537       55.14829       60.10031       87.31561       15.01948    
   12.08662       17.21405       40.00407       27.45531       90.06856       2.750551       98.52426       2.127116       63.35995       81.60800    
   45.75468       32.98693       24.56233       35.86307       58.27215    
   94.25227       53.32744       16.00167       1.595739       95.96140       83.31380       82.01492       59.28289       97.64450       93.04340    
   6.250677       23.02783       51.70379       59.00453       73.92590       39.87827       38.67537       82.34136       77.76564       99.03658    
   94.34991       46.32098       63.81608       69.50903       53.77322    
   26.94506       95.69102       8.842084       93.55167       32.57130       75.04835       80.97054       84.63812       44.16119       89.34248    
   43.25273       13.14801       96.32196       93.29389       3.492336       51.41883       67.70628       51.01221       55.38278       75.36674    
   39.51060       28.96500       58.15618       40.15681       7.619378    
   14.68547       78.59771       94.39898       95.03948       77.41652       62.31303       21.42042       96.28669       55.60659       11.48634    
   15.46375       39.90488       75.54471       97.20312       48.53235       9.394343       67.47982       36.38423       79.27150       44.15519    
   47.40070       95.60509       83.55358       67.84486       10.04306    
   57.55861       12.22178       12.73587       2.302798       82.95982       5.185125       26.16417       30.14719       89.29630       23.14691    
   56.87231       29.86704       35.05760       48.84473       53.56532       95.46447       28.84688       47.47625       21.68539       87.09586    
   73.15144       33.29529       6.794800       61.10347       86.02032    
   54.30922       78.00548       22.95419       62.79176      0.7939718       83.56669      0.6625497       12.73252       81.95222      0.9408469    
   24.75859       25.68966       65.76901       66.90670       34.18061       10.43789       49.86432       38.74385       4.673308       59.69437    
   74.61223       69.14491       5.513267       36.02625       48.28323    
   55.70095       55.63527       35.02017       64.41305       37.63252       95.87550       95.76234       60.62270       7.878697       92.72266    
   57.05690       59.17872       77.77501       89.59917       34.20138       98.17176       79.06711       37.65224       13.26457       78.04786    
   30.84720       47.91201       24.09494       11.87822       3.032877    
   36.50418       54.22625       86.25109       62.69529       80.92684       12.67016       63.92730       45.43597       56.26878       29.44055    
   35.01258       16.21485       32.45654       74.22764       21.32538       46.25758       25.71667       22.87458       44.39608       27.04399    
   2.706342       73.83730       91.71816       45.64633       38.84529    
   76.62807       45.94727       39.73411       22.83259       9.610510       44.03547       80.30245       20.34248       63.10907       4.078361    
   74.23187       36.44862       4.259124       19.20464       3.493454       58.74634       20.68289       10.81234       11.55414       48.87871    
   98.01611       80.68528       58.65878       1.608330       28.69553    
   29.44955       80.85604       55.89322       56.34364       26.02002       92.50996       31.92431       32.19545       86.95863       10.36591    
   68.86029       62.56238       11.53351       33.35290       99.84955       76.80351       87.38427       83.35738       79.67743       77.98701    
   78.60172       8.815442       27.08285       60.88420       57.46716    
   91.99986       50.56969       79.51471       92.03310       4.979192       13.20178       56.17049       92.96049       80.02860       77.30450    
   9.597046       81.55579       33.23732       82.97594       49.63105       36.37379       22.11292       54.43626       36.41169       29.57414    
   85.59456       59.25356       45.56573       16.29057       85.44752    
    INTERNAL  FACTOR  1.0  IPRN  12
   20.16659       8.983651       71.77831       28.37032       49.31478       58.97634       86.90480       85.58263       88.71506       48.57552    
   95.53230       12.21855       42.68350       8.016946       16.54666       31.65231       66.47745       16.79112       99.10168       91.06557    
   66.75151       13.53007       24.07799       56.77929       66.51023    
   73.53152       35.38391      0.3412298       67.98314       10.69717       46.45371       30.41637       72.80299       52.17959       47.96246    
   37.40295       33.61003       14.22701       86.32493       93.42773       66.92477       45.07012       53.70261       36.00163       92.06691    
   51.93772       13.57455       7.004478       51.05992       58.40054    
   34.17768       77.70340       36.22011       89.42920       75.69823       97.03240       6.270875       71.39001       12.04611       28.35066    
   2.155111       95.56903       99.65398       50.43568       83.73446       72.23522       26.33944       52.37073       60.38128       58.18677    
   26.24996       64.58646       7.918323       55.29611       75.90305    
   3.086562       80.70106       1.299320       55.83673       17.87968       30.48726       39.38585       71.54532       9.931060      0.9881750    
   27.51412       70.69280       90.94312       50.38850       33.08371       27.99624       42.25094       61.05669       89.74976       31.23985    
   61.10401       93.10380       54.62558       3.333025       84.94458    
   98.59351       64.62244       41.21301       77.41155       52.48005       58.81430       63.64560       72.48582       82.90569       76.07108    
   36.77453       93.70604       76.07177       94.35196       71.90510       22.22799       92.32521       70.50729       50.54549       67.58447    
   12.86947       90.64864      0.8382806       90.14326       18.45909    
   67.90830       23.90260       14.38914       21.46683       32.95011       58.10646       22.43548       52.47726       68.57630       1.575094    
   16.42089       15.03748       49.18717       7.322548       73.85859       77.62983       23.88493       45.95297       19.79177       99.01486    
  0.5191336       49.43460       19.71045       67.30536       4.830275    
   62.25396       74.47314       70.89687       81.30708       38.90345       84.41772       22.61629       60.03287       93.36507       13.47154    
   16.15625       34.03233       25.00611       8.911240       90.15643       62.93387       69.57610       90.31699       29.17885       48.62555    
   74.38328       60.71173       17.45575       11.85713       69.78870    
   96.38162       2.889616       4.003927       33.35849       15.92053       28.91628       6.301189       74.49786       85.84487       14.05673    
   84.61769       24.60557       62.12545       93.01374       59.03243       77.55374       63.13350       97.15298       78.49916       45.58009    
   33.40126       24.98444       8.935845       36.45235       82.93671    
   57.22752       91.06036       46.19387       11.00118       39.07268       7.918113       62.67835       14.38563       8.651770       93.86624    
   8.594036       48.02272       85.64050       78.54070       27.42195       49.88187       64.56811       6.914905       3.816153       43.58991    
   27.54686       1.548121       23.98747       62.76006       71.36691    
   57.13811       48.88582       59.67553       13.54175       11.20804       97.76839       22.69477       44.28167       81.41132       15.34880    
   46.29530       33.00548       92.89944       34.35202       7.101932       11.19730       26.83780       58.59324       70.28991       77.54739    
   95.43677       68.06818       49.44599       7.763811       36.56590    
   81.63620       26.50415       44.36185       7.715822       54.86447       62.94808       69.83343       70.93177       38.34087       57.99157    
   54.37429       22.89523       91.59786       17.13431       77.61211       46.57611       49.51439       36.60941       75.08413       26.81250    
   27.59903       47.47251       84.97733       67.23585       74.83064    
   35.80877       7.735307       93.45635       78.18893       79.47968       2.597721       83.38530       23.71684       85.75037       60.01490    
   64.43060       19.93584       94.07707       90.39501       27.97758       51.37164       81.10390       83.81780       89.47979       4.479265    
   65.72815       93.93957       61.66540       20.70407       55.10937    
   71.38831       63.40146       9.972492       95.10438       53.62949       64.88819       35.93872       68.99651       36.70882       16.32778    
   87.08902       49.93622       82.94662       31.84712       23.82950      0.4656686E-01   63.40208       93.75327       76.49302       89.51287    
   59.50188       71.44377       11.09118       17.04048       52.27291    
   34.59087       76.21845       98.54491       50.32576       84.80125       27.45234       45.12976       81.38634       25.40575       13.16939    
   62.40906       49.98380       81.77111       62.57053       26.26010       8.178407       99.91626       73.02052       85.55718       42.67243    
   5.458579       93.60729       23.49325       92.47438       8.545039    
   79.50056       69.69140       31.80721       26.07056       87.27356       64.05713       24.86483       2.187384       93.93387       45.46327    
   99.16141       30.21975       63.18379       91.08041       84.85507       72.97073       46.52048       37.11159       77.30133       49.15910    
   78.61683       74.99538       65.31806       29.28656       42.74487    
   13.53325       49.09775       2.191445       35.95080       16.51612       52.99879       71.06243       79.36441       87.77084       62.20214    
   17.64473       29.35591       45.74570       78.25919       59.42646       94.23750       1.878902       79.00198       92.11604       84.90421    
   53.88130       72.62466       81.81333       79.44776       77.68616    
   63.08897       35.85479       78.10188       97.02110       94.38075       45.22939       26.14247       25.21745       19.43301       4.464606    
   55.21308       86.16838       76.07446       99.69605       7.477216       97.88502       85.66209       30.65173       30.75327       49.74012    
   83.51200       33.33513       43.69089       1.989481       94.70165    
   44.27029       89.01852       27.21920       60.47989       67.00703       45.36459       91.44495       79.86166       63.48676       15.65300    
   73.27846       38.60561       46.43040       84.69911       41.71238       33.31286       59.02804       3.068491       48.49554       76.37758    
   60.65974       82.55547       7.636497       87.86625       72.62750    
   80.13995       58.44275       23.19191       11.77569       38.22196       19.69032       89.44267       90.05097       98.27802       46.43224    
   38.19583       63.86674       72.69189       27.10622       83.05797       10.08324       65.26729       38.47512       49.54274       58.67566    
   35.79303       72.49157       45.88935       53.18369       20.76930    
   5.587135       67.93517       36.18878       4.593406       91.22393       20.44175       7.243396       82.13926       23.89223       77.85866    
   50.18533       4.978729       79.63192       63.98219       79.93752       3.662801       43.25141       90.51534       31.95261       68.02538    
   29.00737       80.69833       42.01643       75.61590       4.747577    
    INTERNAL  FACTOR  1.0  IPRN  12
   1.082926       32.25420       14.51353       96.43316       61.77706       60.30885       99.24469       86.97507       47.86826       67.94533    
   68.83504       64.01550       19.85020       57.75671       21.27289       98.10900       43.81858       40.90703       93.42703       27.85625    
   29.68619       87.33448       24.03535       29.80736       47.20205    
   6.080618       10.85044       37.50036       94.76228       63.19684       18.80354       60.89676       39.24648       63.16046       48.92626    
   53.98290       52.94040       97.77722       29.94559       45.43756       35.27763       97.99541       32.50303       23.09555       79.25283    
   71.39120      0.3897001       48.05515       7.624286       87.39064    
   48.34625       50.55645       44.67340       5.208158       9.009738       57.77332       19.36944       63.82619       87.93101       70.54895    
   33.76374       21.31312       48.60353       23.52022       31.79512       46.20545       90.83696       67.25080       40.54498       66.32777    
   93.82959       8.500480       30.69873       75.86729       44.32714    
   60.68507       12.25137       99.43336       13.35921       38.29081       59.37553       30.71311       87.27218       5.744008       83.70637    
   61.83244       87.33428       14.68097       47.15724       80.27342       39.69348       72.09516       56.10375       53.28420       65.78296    
   29.43544       27.73653       89.34468       84.73232       90.56565    
   93.90407       23.41802       14.31539       3.520346       6.929522       28.88313       64.19504       47.50097       87.95293       35.70396    
   41.18475       18.19905       3.414824       46.13968       38.83337       79.91175       94.11901       11.53364       13.44315       20.02275    
   56.91125       11.28302       15.42428       93.10800       11.13343    
   80.69725       91.28853       63.75174       57.02187       96.31994       76.34073       94.40775       5.244986       23.24980       77.45782    
   78.03788       39.25021       42.45387       24.84444       59.58995       91.27970       17.44728       51.93150       42.56394       41.80779    
   94.26295       54.93011       16.94651       30.46671       39.55767    
   76.35243       39.93048       15.31174       1.064968       63.15144       56.32403       59.07999       34.87140       39.65718      0.3073085    
   97.17651       25.58773       71.60981       77.58884       60.04068       47.20413       90.03214       51.90309       12.32302       80.83620    
   74.85988       16.72441       77.27194       94.75273       93.91891    
   68.32706       98.23528       18.83709       53.75652       20.32687       88.78123       78.05896       57.42327       9.620810       59.12836    
   19.87200       46.02699       35.18302       15.03990       11.61965       57.82479       17.13353       29.33488       69.33533       88.72629    
   97.65153       50.52155       86.39317       51.13217       37.97117    
   52.38924       2.807418       7.278768       7.224457       16.20445       77.29992       28.87328       13.75404       25.59813       97.12108    
   20.23829      0.2395101       37.42590       71.65086       41.91484       15.10528       70.51130       62.47152       69.58128       38.69508    
   49.79918       79.29920       43.12368       30.03516       13.15275    
   67.89764       11.19546       92.65949       10.11794      0.6805287       79.47957       70.05788       87.59297       1.565946       46.38865    
   72.96524       91.52819       35.04776       24.51413       56.80067       20.47005       47.66753       55.00933       43.41376       13.81538    
   59.73413       95.54845       34.12038       33.19150       96.96054    
   20.90417       63.46145       78.41454       86.01064       61.73795       83.72059       20.45574       57.09782       85.24966       26.33054    
   9.666025       41.61024       30.33820       76.44015       27.27034       28.17197       60.08603       68.29742       16.64531       47.53912    
   18.27080       89.47438       76.28871       81.58867       56.23039    
   6.665095       62.66639       42.71660       80.31357       17.36841       12.04787       3.611959       21.46875       59.86185       45.08724    
   57.02356       93.87921       11.74257       43.71492       39.84567       54.10542       53.49312       2.574144       32.42741       45.25608    
   50.95989       67.43393       33.27559       46.22785       39.27248    
   40.37684       95.92958       91.31773       9.405020       56.58503       6.558967       57.63163       26.76729       76.31505       49.50024    
   52.50508       66.56114       84.21642       85.82352       2.308398       13.95133       81.46548       82.97306       93.25481       63.63848    
   34.30577       52.91574       59.94404       66.73265       28.50473    
   3.296626       15.98567       9.226550       91.87280       14.09649       59.41251       16.37230       86.83194       14.58235       73.40897    
   22.29496       28.14822       75.02844       24.66590       77.42086       40.51115       92.47105       64.13605       88.26720       51.25612    
   4.807782       65.30900       55.98877       66.66109       7.294470    
   28.31745       1.172712       38.73897       85.11326       69.35851       29.24526       26.07296       71.47221       35.71387       24.19207    
   26.52824       18.11151       56.30746       2.277520       37.26999       10.35110       48.72234       42.34409       20.47426       22.34451    
   46.07672       5.727961       34.68576       77.45232       14.25780    
   17.87815       47.83285       89.00179       45.47752       92.91666       43.74101       72.47262       84.91608       7.710962       63.43327    
   13.84514       27.86776       77.58778       8.831359       31.88777       23.97063       67.03955       48.03054       56.11532       44.48774    
   39.24025       64.74556       52.12384       44.68830       87.12177    
   34.85783       88.20355       49.87733       36.51659       45.98557       19.85166       16.88035       29.81302       66.19857       30.58906    
   45.71206       55.45204       4.219118       89.04150       78.20498       25.78489       69.17783       25.88014       24.14066       56.87695    
   3.779217       43.66291       96.84554       36.88988       36.45824    
   7.715919       81.94480       68.88531       31.86313       16.01537       58.86091       64.17599       73.98712       23.19570       38.72085    
   68.14453       12.82980       92.63160       48.01493       80.05451       3.614241       72.43187       44.91184       77.58866       46.20856    
   72.35374       2.436235       6.100259       81.86151       21.51067    