# TDIS8 input file, prepared by MF5to6 on 9/27/2016 at 10:56:52.

BEGIN Options
  TIME_UNITS DAYS
END Options

BEGIN Dimensions
  NPER 1
END Dimensions

BEGIN PERIODDATA
    100.00000               1    1.0000000      Items: PERLEN NSTP TSMULT
END PERIODDATA
