# Name File for MODFLOW created on 12/16/2007 by ModelMuse
LIST         11 testevt.lst REPLACE
DATA(BINARY)  9 testevt.cbc REPLACE
DIS          12 testevt.dis OLD
BAS6         13 testevt.bas OLD
OC           39 testevt.oc OLD
DATA         38 testevt.fdn REPLACE
DATA(BINARY) 40 testevt.hds REPLACE
PCG          18 testevt.pcg OLD
LPF          14 testevt.lpf OLD
EVT          25 testevt.evt OLD
