BEGIN griddata
  strt
    CONSTANT     -10.66809721
END griddata

