begin options
  print_option  summary
end options

begin nonlinear
  outer_dvclose  1.00000000e-09
  outer_maximum  500
  under_relaxation  none
end nonlinear

begin linear
  inner_maximum  300
  inner_dvclose  1.00000000e-09
  inner_rclose  1.00000000e-06
  linear_acceleration  bicgstab
  relaxation_factor       1.00000000
  scaling_method  none
  reordering_method  none
end linear

