BEGIN options
  PRINT_INPUT
  SAVE_FLOWS
  GAMMAW    9806.65000000
  BETA  4.65120000E-10
  UPDATE_MATERIAL_PROPERTIES
  TS6  FILEIN  fig4_base.load.ts
  OBS6  FILEIN  fig4_base.csub.obs
END options

BEGIN dimensions
  NINTERBEDS  0
  MAXSIG0  1
END dimensions

BEGIN griddata
  cg_ske_cr  LAYERED
    CONSTANT  3.30000000E-05
    CONSTANT  6.60000000E-04
    CONSTANT  4.49913843E-07
  cg_theta  LAYERED
    CONSTANT       0.25000000
    CONSTANT       0.50000000
    CONSTANT       0.30000000
  sgm
    CONSTANT       1.70000000
  sgs
    CONSTANT       2.00000000
END griddata

BEGIN period  1
  1 1 1  load
END period  1

