BEGIN options
  BUDGET  FILEOUT  fig4_base.cbc
  HEAD  FILEOUT  fig4_base.hds
  HEAD  PRINT_FORMAT  COLUMNS  10  WIDTH  15  DIGITS  6  general
END options

BEGIN period  1
  SAVE  head  all
  SAVE  budget  all
  PRINT  head  all
  PRINT  budget  all
END period  1

