BEGIN options
END options

BEGIN dimensions
  NLAY  3
  NROW  1
  NCOL  35
END dimensions

BEGIN griddata
  delr
    INTERNAL  FACTOR  1.0
           0.50000000       0.60000000       0.72000000       0.86400000       1.03680000       1.24416000       1.49299200       1.79159040       2.14990848       2.57989018       3.09586821       3.71504185       4.45805022       5.34966027       6.41959232       7.70351079       9.24421294      11.09305553      13.31166664      15.97399997
        19.16879996      23.00255995      27.60307195      33.12368633      39.74842360      47.69810832      57.23772999      68.68527598      82.42233118      98.90679742     100.00000000     100.00000000     100.00000000     100.00000000     100.00000000
  delc
    CONSTANT     100.58491653
  top
    CONSTANT       0.00000000
  botm  LAYERED
    CONSTANT     -12.20000000
    CONSTANT     -21.30000000
    CONSTANT     -30.50000000
END griddata

