begin options
  PRINT_INPUT
  PRINT_FLOWS
  SAVE_FLOWS
end options

begin dimensions
  MAXBOUND 100
end dimensions

begin period 1
1  1     1 12
1  2     1 12
1  3     1 12
1  4     1 12
1  5     1 12
1  6     1 12
1  7     1 12
1  8     1 12
1  9     1 12
1  10    1 12
1  11    1 12
1  12    1 12
1  13    1 12
1  14    1 12
1  15    1 12
1  16    1 12
1  17    1 12
1  18    1 12
1  19    1 12
1  20    1 12
1  21    1 12
1  22    1 12
1  23    1 12
1  24    1 12
1  25    1 12
1  26    1 12
1  27    1 12
1  28    1 12
1  29    1 12
1  30    1 12
1  31    1 12
1  32    1 12
1  33    1 12
1  34    1 12
1  35    1 12
1  36    1 12
1  37    1 12
1  38    1 12
1  39    1 12
1  40    1 12
1  41    1 12
1  42    1 12
1  43    1 12
1  44    1 12
1  45    1 12
1  46    1 12
1  47    1 12
1  48    1 12
1  49    1 12
1  50    1 12
1   1  108  8
1   2  108  8
1   3  108  8
1   4  108  8
1   5  108  8
1   6  108  8
1   7  108  8
1   8  108  8
1   9  108  8
1  10  108  8
1  11  108  8
1  12  108  8
1  13  108  8
1  14  108  8
1  15  108  8
1  16  108  8
1  17  108  8
1  18  108  8
1  19  108  8
1  20  108  8
1  21  108  8
1  22  108  8
1  23  108  8
1  24  108  8
1  25  108  8
1  26  108  8
1  27  108  8
1  28  108  8
1  29  108  8
1  30  108  8
1  31  108  8
1  32  108  8
1  33  108  8
1  34  108  8
1  35  108  8
1  36  108  8
1  37  108  8
1  38  108  8
1  39  108  8
1  40  108  8
1  41  108  8
1  42  108  8
1  43  108  8
1  44  108  8
1  45  108  8
1  46  108  8
1  47  108  8
1  48  108  8
1  49  108  8
1  50  108  8
end period
