BEGIN OPTIONS
  PRINT_FLOWS
  UNIT_CONVERSION 1.00
END OPTIONS

#dimension block is required
BEGIN DIMENSIONS
  NREACHES 108
END DIMENSIONS

BEGIN PACKAGEDATA
#rch    k    i    j   length width          slope     sbot bthick      hk rough nconn ustrf ndiv
 001    1   26  001     92.5    20  1.2012012E-03 13.94444    1.5    0.00  0.04     1     1    0
 002    1   26  002     92.5    20  1.2012012E-03 13.83333    1.5    0.02  0.04     2     1    0
 003    1   26  003     92.5    20  1.2012012E-03 13.72222    1.5    0.02  0.04     2     1    0
 004    1   26  004     92.5    20  1.2012012E-03 13.61111    1.5    0.02  0.04     2     1    0
 005    1   26  005     92.5    20  1.2012012E-03 13.50000    1.5    0.02  0.04     2     1    0
 006    1   26  006     92.5    20  1.2012012E-03 13.38889    1.5    0.02  0.04     2     1    0
 007    1   26  007     92.5    20  1.2012012E-03 13.27778    1.5    0.02  0.04     2     1    0
 008    1   26  008     92.5    20  1.2012012E-03 13.16667    1.5    0.02  0.04     2     1    0
 009    1   26  009     92.5    20  1.2012012E-03 13.05556    1.5    0.02  0.04     2     1    0
 010    1   26  010     92.5    20  1.2012012E-03 12.94444    1.5    0.02  0.04     2     1    0
 011    1   26  011     92.5    20  1.2012012E-03 12.83333    1.5    0.02  0.04     2     1    0
 012    1   26  012     92.5    20  1.2012012E-03 12.72222    1.5    0.02  0.04     2     1    0
 013    1   26  013     92.5    20  1.2012012E-03 12.61111    1.5    0.02  0.04     2     1    0
 014    1   26  014     92.5    20  1.2012012E-03 12.50000    1.5    0.02  0.04     2     1    0
 015    1   26  015     92.5    20  1.2012012E-03 12.38889    1.5    0.02  0.04     2     1    0
 016    1   26  016     92.5    20  1.2012012E-03 12.27778    1.5    0.02  0.04     2     1    0
 017    1   26  017     92.5    20  1.2012012E-03 12.16667    1.5    0.02  0.04     2     1    0
 018    1   26  018     92.5    20  1.2012012E-03 12.05556    1.5    0.02  0.04     2     1    0
 019    1   26  019     92.5    20  1.2012012E-03 11.94444    1.5    0.02  0.04     2     1    0
 020    1   26  020     92.5    20  1.2012012E-03 11.83333    1.5    0.02  0.04     2     1    0
 021    1   26  021     92.5    20  1.2012012E-03 11.72222    1.5    0.02  0.04     2     1    0
 022    1   26  022     92.5    20  1.2012012E-03 11.61111    1.5    0.02  0.04     2     1    0
 023    1   26  023     92.5    20  1.2012012E-03 11.50000    1.5    0.02  0.04     2     1    0
 024    1   26  024     92.5    20  1.2012012E-03 11.38889    1.5    0.02  0.04     2     1    0
 025    1   26  025     92.5    20  1.2012012E-03 11.27778    1.5    0.02  0.04     2     1    0
 026    1   26  026     92.5    20  1.2012012E-03 11.16667    1.5    0.02  0.04     2     1    0
 027    1   26  027     92.5    20  1.2012012E-03 11.05556    1.5    0.02  0.04     2     1    0
 028    1   26  028     92.5    20  1.2012012E-03 10.94444    1.5    0.02  0.04     2     1    0
 029    1   26  029     92.5    20  1.2012012E-03 10.83333    1.5    0.02  0.04     2     1    0
 030    1   26  030     92.5    20  1.2012012E-03 10.72222    1.5    0.02  0.04     2     1    0
 031    1   26  031     92.5    20  1.2012012E-03 10.61111    1.5    0.02  0.04     2     1    0
 032    1   26  032     92.5    20  1.2012012E-03 10.50000    1.5    0.02  0.04     2     1    0
 033    1   26  033     92.5    20  1.2012012E-03 10.38889    1.5    0.02  0.04     2     1    0
 034    1   26  034     92.5    20  1.2012012E-03 10.27778    1.5    0.02  0.04     2     1    0
 035    1   26  035     92.5    20  1.2012012E-03 10.16667    1.5    0.02  0.04     2     1    0
 036    1   26  036     92.5    20  1.2012012E-03 10.05556    1.5    0.02  0.04     2     1    0
 037    1   26  037     92.5    20  1.2012012E-03  9.94445    1.5    0.02  0.04     2     1    0
 038    1   26  038     92.5    20  1.2012012E-03  9.83333    1.5    0.02  0.04     2     1    0
 039    1   26  039     92.5    20  1.2012012E-03  9.72222    1.5    0.02  0.04     2     1    0
 040    1   26  040     92.5    20  1.2012012E-03  9.61111    1.5    0.02  0.04     2     1    0
 041    1   26  041     92.5    20  1.2012012E-03  9.50000    1.5    0.02  0.04     2     1    0
 042    1   26  042     92.5    20  1.2012012E-03  9.38889    1.5    0.02  0.04     2     1    0
 043    1   26  043     92.5    20  1.2012012E-03  9.27778    1.5    0.02  0.04     2     1    0
 044    1   26  044     92.5    20  1.2012012E-03  9.16667    1.5    0.02  0.04     2     1    0
 045    1   26  045     92.5    20  1.2012012E-03  9.05556    1.5    0.02  0.04     2     1    0
 046    1   26  046     92.5    20  1.2012012E-03  8.94445    1.5    0.02  0.04     2     1    0
 047    1   26  047     92.5    20  1.2012012E-03  8.83333    1.5    0.02  0.04     2     1    0
 048    1   26  048     92.5    20  1.2012012E-03  8.72222    1.5    0.02  0.04     2     1    0
 049    1   26  049     92.5    20  1.2012012E-03  8.61111    1.5    0.02  0.04     2     1    0
 050    1   26  050     92.5    20  1.2012012E-03  8.50000    1.5    0.02  0.04     2     1    0
 051    1   26  051     92.5    20  1.2012012E-03  8.38889    1.5    0.02  0.04     2     1    0
 052    1   26  052     92.5    20  1.2012012E-03  8.27778    1.5    0.02  0.04     2     1    0
 053    1   26  053     92.5    20  1.2012012E-03  8.16667    1.5    0.02  0.04     2     1    0
 054    1   26  054     92.5    20  1.2012012E-03  8.05556    1.5    0.02  0.04     2     1    0
 055    1   26  055     92.5    20  1.2012012E-03  7.94444    1.5    0.02  0.04     2     1    0
 056    1   26  056     92.5    20  1.2012012E-03  7.83333    1.5    0.02  0.04     2     1    0
 057    1   26  057     92.5    20  1.2012012E-03  7.72222    1.5    0.02  0.04     2     1    0
 058    1   26  058     92.5    20  1.2012012E-03  7.61111    1.5    0.02  0.04     2     1    0
 059    1   26  059     92.5    20  1.2012012E-03  7.50000    1.5    0.02  0.04     2     1    0
 060    1   26  060     92.5    20  1.2012012E-03  7.38889    1.5    0.02  0.04     2     1    0
 061    1   26  061     92.5    20  1.2012012E-03  7.27778    1.5    0.02  0.04     2     1    0
 062    1   26  062     92.5    20  1.2012012E-03  7.16667    1.5    0.02  0.04     2     1    0
 063    1   26  063     92.5    20  1.2012012E-03  7.05556    1.5    0.02  0.04     2     1    0
 064    1   26  064     92.5    20  1.2012012E-03  6.94444    1.5    0.02  0.04     2     1    0
 065    1   26  065     92.5    20  1.2012012E-03  6.83333    1.5    0.02  0.04     2     1    0
 066    1   26  066     92.5    20  1.2012012E-03  6.72222    1.5    0.02  0.04     2     1    0
 067    1   26  067     92.5    20  1.2012012E-03  6.61111    1.5    0.02  0.04     2     1    0
 068    1   26  068     92.5    20  1.2012012E-03  6.50000    1.5    0.02  0.04     2     1    0
 069    1   26  069     92.5    20  1.2012012E-03  6.38889    1.5    0.02  0.04     2     1    0
 070    1   26  070     92.5    20  1.2012012E-03  6.27778    1.5    0.02  0.04     2     1    0
 071    1   26  071     92.5    20  1.2012012E-03  6.16667    1.5    0.02  0.04     2     1    0
 072    1   26  072     92.5    20  1.2012012E-03  6.05556    1.5    0.02  0.04     2     1    0
 073    1   26  073     92.5    20  1.2012012E-03  5.94445    1.5    0.02  0.04     2     1    0
 074    1   26  074     92.5    20  1.2012012E-03  5.83333    1.5    0.02  0.04     2     1    0
 075    1   26  075     92.5    20  1.2012012E-03  5.72222    1.5    0.02  0.04     2     1    0
 076    1   26  076     92.5    20  1.2012012E-03  5.61111    1.5    0.02  0.04     2     1    0
 077    1   26  077     92.5    20  1.2012012E-03  5.50000    1.5    0.02  0.04     2     1    0
 078    1   26  078     92.5    20  1.2012012E-03  5.38889    1.5    0.02  0.04     2     1    0
 079    1   26  079     92.5    20  1.2012012E-03  5.27778    1.5    0.02  0.04     2     1    0
 080    1   26  080     92.5    20  1.2012012E-03  5.16667    1.5    0.02  0.04     2     1    0
 081    1   26  081     92.5    20  1.2012012E-03  5.05556    1.5    0.02  0.04     2     1    0
 082    1   26  082     92.5    20  1.2012012E-03  4.94445    1.5    0.02  0.04     2     1    0
 083    1   26  083     92.5    20  1.2012012E-03  4.83333    1.5    0.02  0.04     2     1    0
 084    1   26  084     92.5    20  1.2012012E-03  4.72222    1.5    0.02  0.04     2     1    0
 085    1   26  085     92.5    20  1.2012012E-03  4.61111    1.5    0.02  0.04     2     1    0
 086    1   26  086     92.5    20  1.2012012E-03  4.50000    1.5    0.02  0.04     2     1    0
 087    1   26  087     92.5    20  1.2012012E-03  4.38889    1.5    0.02  0.04     2     1    0
 088    1   26  088     92.5    20  1.2012012E-03  4.27778    1.5    0.02  0.04     2     1    0
 089    1   26  089     92.5    20  1.2012012E-03  4.16667    1.5    0.02  0.04     2     1    0
 090    1   26  090     92.5    20  1.2012012E-03  4.05556    1.5    0.02  0.04     2     1    0
 091    1   26  091     92.5    20  1.2012012E-03  3.94445    1.5    0.02  0.04     2     1    0
 092    1   26  092     92.5    20  1.2012012E-03  3.83333    1.5    0.02  0.04     2     1    0
 093    1   26  093     92.5    20  1.2012012E-03  3.72222    1.5    0.02  0.04     2     1    0
 094    1   26  094     92.5    20  1.2012012E-03  3.61111    1.5    0.02  0.04     2     1    0
 095    1   26  095     92.5    20  1.2012012E-03  3.50000    1.5    0.02  0.04     2     1    0
 096    1   26  096     92.5    20  1.2012012E-03  3.38889    1.5    0.02  0.04     2     1    0
 097    1   26  097     92.5    20  1.2012012E-03  3.27778    1.5    0.02  0.04     2     1    0
 098    1   26  098     92.5    20  1.2012012E-03  3.16667    1.5    0.02  0.04     2     1    0
 099    1   26  099     92.5    20  1.2012012E-03  3.05556    1.5    0.02  0.04     2     1    0
 100    1   26  100     92.5    20  1.2012012E-03  2.94444    1.5    0.02  0.04     2     1    0
 101    1   26  101     92.5    20  1.2012012E-03  2.83333    1.5    0.02  0.04     2     1    0
 102    1   26  102     92.5    20  1.2012012E-03  2.72222    1.5    0.02  0.04     2     1    0
 103    1   26  103     92.5    20  1.2012012E-03  2.61111    1.5    0.02  0.04     2     1    0
 104    1   26  104     92.5    20  1.2012012E-03  2.50000    1.5    0.02  0.04     2     1    0
 105    1   26  105     92.5    20  1.2012012E-03  2.38889    1.5    0.02  0.04     2     1    0
 106    1   26  106     92.5    20  1.2012012E-03  2.27778    1.5    0.02  0.04     2     1    0
 107    1   26  107     92.5    20  1.2012012E-03  2.16667    1.5    0.02  0.04     2     1    0
 108    1   26  108     92.5    20  1.2012012E-03  2.05556    1.5    0.00  0.04     1     1    0
END PACKAGEDATA

BEGIN CONNECTIONDATA
001     -002 
002 001 -003
003 002 -004
004 003 -005
005 004 -006
006 005 -007
007 006 -008
008 007 -009
009 008 -010
010 009 -011
011 010 -012
012 011 -013
013 012 -014
014 013 -015
015 014 -016
016 015 -017
017 016 -018
018 017 -019
019 018 -020
020 019 -021
021 020 -022
022 021 -023
023 022 -024
024 023 -025
025 024 -026
026 025 -027
027 026 -028
028 027 -029
029 028 -030
030 029 -031
031 030 -032
032 031 -033
033 032 -034
034 033 -035
035 034 -036
036 035 -037
037 036 -038
038 037 -039
039 038 -040
040 039 -041
041 040 -042
042 041 -043
043 042 -044
044 043 -045
045 044 -046
046 045 -047
047 046 -048
048 047 -049
049 048 -050
050 049 -051
051 050 -052
052 051 -053
053 052 -054
054 053 -055
055 054 -056
056 055 -057
057 056 -058
058 057 -059
059 058 -060
060 059 -061
061 060 -062
062 061 -063
063 062 -064
064 063 -065
065 064 -066
066 065 -067
067 066 -068
068 067 -069
069 068 -070
070 069 -071
071 070 -072
072 071 -073
073 072 -074
074 073 -075
075 074 -076
076 075 -077
077 076 -078
078 077 -079
079 078 -080
080 079 -081
081 080 -082
082 081 -083
083 082 -084
084 083 -085
085 084 -086
086 085 -087
087 086 -088
088 087 -089
089 088 -090
090 089 -091
091 090 -092
092 091 -093
093 092 -094
094 093 -095
095 094 -096
096 095 -097
097 096 -098
098 097 -099
099 098 -100
100 099 -101
101 100 -102
102 101 -103
103 102 -104
104 103 -105
105 104 -106
106 105 -107
107 106 -108
108 107 
END CONNECTIONDATA  

begin period 1  
  1 inflow 5. 
end period   

