BEGIN OPTIONS
  LENGTH_UNITS METERS
END OPTIONS

BEGIN DIMENSIONS
  NLAY 1
  NROW 50
  NCOL 108
END DIMENSIONS

BEGIN GRIDDATA
  delr
    CONSTANT     9.250000E+01  DELR
  delc
    CONSTANT     9.000000E+01  DELC
  top LAYERED
    CONSTANT     1.000000E+00  TOP
  botm LAYERED
    CONSTANT     0.000000E+00  TOP
  idomain LAYERED
    CONSTANT                1
     
END GRIDDATA




