BEGIN options
  auxiliary  CONCENTRATION
  PRINT_INPUT
  PRINT_FLOWS
END options

BEGIN dimensions
  MAXBOUND  40
END dimensions

BEGIN period  1
  1 1 80       1.00000000      35.00000000
  2 1 80       1.00000000      35.00000000
  3 1 80       1.00000000      35.00000000
  4 1 80       1.00000000      35.00000000
  5 1 80       1.00000000      35.00000000
  6 1 80       1.00000000      35.00000000
  7 1 80       1.00000000      35.00000000
  8 1 80       1.00000000      35.00000000
  9 1 80       1.00000000      35.00000000
  10 1 80       1.00000000      35.00000000
  11 1 80       1.00000000      35.00000000
  12 1 80       1.00000000      35.00000000
  13 1 80       1.00000000      35.00000000
  14 1 80       1.00000000      35.00000000
  15 1 80       1.00000000      35.00000000
  16 1 80       1.00000000      35.00000000
  17 1 80       1.00000000      35.00000000
  18 1 80       1.00000000      35.00000000
  19 1 80       1.00000000      35.00000000
  20 1 80       1.00000000      35.00000000
  21 1 80       1.00000000      35.00000000
  22 1 80       1.00000000      35.00000000
  23 1 80       1.00000000      35.00000000
  24 1 80       1.00000000      35.00000000
  25 1 80       1.00000000      35.00000000
  26 1 80       1.00000000      35.00000000
  27 1 80       1.00000000      35.00000000
  28 1 80       1.00000000      35.00000000
  29 1 80       1.00000000      35.00000000
  30 1 80       1.00000000      35.00000000
  31 1 80       1.00000000      35.00000000
  32 1 80       1.00000000      35.00000000
  33 1 80       1.00000000      35.00000000
  34 1 80       1.00000000      35.00000000
  35 1 80       1.00000000      35.00000000
  36 1 80       1.00000000      35.00000000
  37 1 80       1.00000000      35.00000000
  38 1 80       1.00000000      35.00000000
  39 1 80       1.00000000      35.00000000
  40 1 80       1.00000000      35.00000000
END period  1

