begin options
  PRINT_INPUT
  PRINT_FLOWS
  SAVE_FLOWS
end options

begin dimensions
  MAXBOUND 10
end dimensions

begin period 1
  1 1 1 1.
  1 1 2 2.
  3 10 9 2.
  3 10 10 1.
end period

begin period 2
end period

begin period 3
  1 1 1 1.
  1 1 2 2.
  3 10 9 2.
  3 10 10 1.
end period

begin period 4
end period

