begin options
  PRINT_INPUT
  PRINT_FLOWS
  SAVE_FLOWS
end options

begin dimensions
  MAXBOUND 10
end dimensions

begin period 2
  1 1 9 2.
  1 1 10 1.
  3 10 1 1.
  3 10 2 2.
end period

begin period 3
end period

begin period 4
  1 1 9 2.
  1 1 10 1.
  3 10 1 1.
  3 10 2 2.
end period

