BEGIN OPTIONS

END OPTIONS

BEGIN DIMENSIONS
  NLAY 3
  NROW 10
  NCOL 10
END DIMENSIONS

BEGIN GRIDDATA
  delr
    CONSTANT   1.000000E+00  DELR
  delc
    CONSTANT   1.000000E+00  DELC
  top
    CONSTANT   1.000000E+00  TOP
  botm layered
    CONSTANT   0.000000E+00  BOTM 1
    CONSTANT  -1.000000E+01  BOTM 2
    CONSTANT  -2.000000E+01  BOTM 3
END GRIDDATA
