BEGIN OPTIONS
  TIME_UNITS MINUTES
END OPTIONS

BEGIN DIMENSIONS
  NPER 4
END DIMENSIONS

BEGIN PERIODDATA
 #perlen nstp  tsmult
    1.0    1    1.0
    1.0    1    1.0
    1.0    1    1.0
    1.0    1    1.0
END PERIODDATA
