# Solution file for MF6

begin options
  PRINT_OPTION SUMMARY
end options

begin nonlinear
  outer_hclose 1.e-8
  outer_maximum 500
  under_relaxation none
end nonlinear

begin linear
  inner_hclose 1.0e-8
  inner_rclose 1.e-2
  #L2NORM_RCLOSE
  inner_maximum 500
  linear_acceleration bicgstab  
  scaling_method none
  REORDERING_METHOD none
  relaxation_factor 0.97
end linear
