begin options
  PRINT_INPUT
  PRINT_FLOWS
  SAVE_FLOWS
end options

begin dimensions
  MAXBOUND 14
end dimensions

begin period 1
1  1 0.65
1  8 0.65
1 15 0.65
1 19 0.65
1 23 0.65
1 27 0.65
1 34 0.65

1  7 0.05
1 14 0.05
1 18 0.05
1 22 0.05
1 26 0.05
1 33 0.05
1 40 0.05
end period
