begin options
  PRINT_INPUT
  PRINT_FLOWS
  SAVE_FLOWS
  BOUNDNAMES
  OBS6 FILEIN model_left.chd.obs
end options

begin dimensions
  MAXBOUND 40
end dimensions

begin period 1
#layer 1
 1 1 1 10.  CHD_LEFT
 1 2 1 10.  CHD_LEFT
 1 3 1 10.  CHD_LEFT
 1 4 1 10.  CHD_LEFT
 1 5 1 10.  CHD_LEFT
 1 6 1 10.  CHD_LEFT
 1 7 1 10.  CHD_LEFT
 1 8 1 10.  CHD_LEFT
 1 9 1 10.  CHD_LEFT
 1 10 1 10. CHD_LEFT
 1 11 1 10.  CHD_LEFT
 1 12 1 10.  CHD_LEFT
 1 13 1 10.  CHD_LEFT
 1 14 1 10.  CHD_LEFT
 1 15 1 10.  CHD_LEFT
 1 16 1 10.  CHD_LEFT
 1 17 1 10.  CHD_LEFT
 1 18 1 10.  CHD_LEFT
 1 19 1 10.  CHD_LEFT
 1 20 1 10.  CHD_LEFT
 1 21 1 10.  CHD_LEFT
 1 22 1 10.  CHD_LEFT
 1 23 1 10.  CHD_LEFT
 1 24 1 10.  CHD_LEFT
 1 25 1 10.  CHD_LEFT
 1 26 1 10.  CHD_LEFT
 1 27 1 10.  CHD_LEFT
 1 28 1 10.  CHD_LEFT
 1 29 1 10.  CHD_LEFT
 1 30 1 10.  CHD_LEFT
 1 31 1 10.  CHD_LEFT
 1 32 1 10.  CHD_LEFT
 1 33 1 10.  CHD_LEFT
 1 34 1 10.  CHD_LEFT
 1 35 1 10.  CHD_LEFT
 1 36 1 10.  CHD_LEFT
 1 37 1 10.  CHD_LEFT
 1 38 1 10.  CHD_LEFT
 1 39 1 10.  CHD_LEFT
 1 40 1 10.  CHD_LEFT
end period

