begin options
  PRINT_INPUT
  PRINT_FLOWS
  SAVE_FLOWS
end options

begin dimensions
  MAXBOUND 40
end dimensions

begin period 1
#layer 1
 1 1  20 5.
 1 2  20 5.
 1 3  20 5.
 1 4  20 5.
 1 5  20 5.
 1 6  20 5.
 1 7  20 5.
 1 8  20 5.
 1 9  20 5.
 1 10 20 5.
 1 11 20 5.
 1 12 20 5.
 1 13 20 5.
 1 14 20 5.
 1 15 20 5.
 1 16 20 5.
 1 17 20 5.
 1 18 20 5.
 1 19 20 5.
 1 20 20 5.
 1 21 20 5.
 1 22 20 5.
 1 23 20 5.
 1 24 20 5.
 1 25 20 5.
 1 26 20 5.
 1 27 20 5.
 1 28 20 5.
 1 29 20 5.
 1 30 20 5.
 1 31 20 5.
 1 32 20 5.
 1 33 20 5.
 1 34 20 5.
 1 35 20 5.
 1 36 20 5.
 1 37 20 5.
 1 38 20 5.
 1 39 20 5.
 1 40 20 5.
end period
