BEGIN OPTIONS
  TIME_UNITS MINUTES
END OPTIONS

BEGIN DIMENSIONS
  NPER 10
END DIMENSIONS

BEGIN PERIODDATA
 #perlen    nstp  tsmult
    1440.0    1    1.0
    1440.0    5    1.0
    1440.0   10    1.0
    1440.0   15    1.1
    1440.0   10    1.1
    1440.0   12    1.1
    1440.0   10    1.1
    1440.0   11    1.1
    1440.0   10    1.1
    1440.0   10    1.1
END PERIODDATA
