BEGIN OPTIONS
END OPTIONS

BEGIN GRIDDATA
  STRT
    CONSTANT    10.0
END GRIDDATA
