BEGIN OPTIONS
  SAVE_FLOWS
  ALTERNATIVE_CELL_AVERAGING AMT-HMK
  DEV_MODFLOWNWT_UPSTREAM_WEIGHTING
  DEV_MINIMUM_SATURATED_THICKNESS 1D-9
  DEV_OMEGA 1D-5
END OPTIONS

BEGIN GRIDDATA
  ICELLTYPE
    CONSTANT  1
  K
    CONSTANT 1.0
  K33
    CONSTANT 1.0
END GRIDDATA
