# sms8 input file, prepared by mf5to6 on 1/24/2017 at 17:28:41.

begin options
  print_option  summary
  complexity  simple
end options

begin nonlinear
  outer_dvclose   0.1000000e-06
  outer_maximum  1500
  under_relaxation  none
  under_relaxation_theta    0.000000
  under_relaxation_kappa    0.000000
  under_relaxation_gamma    0.000000
  under_relaxation_momentum    0.000000
end nonlinear

begin linear
  inner_maximum  100
  inner_dvclose   0.1000000e-07
  inner_rclose   1e-6
  linear_acceleration  cg
  relaxation_factor   0.9900000
  number_orthogonalizations  2
  reordering_method  none
end linear
