# Discretization file for MODFLOW, generated by Flopy.
        80         1       400         1         4         2
  0  0  0  0  0  0  0  0  0  0  0  0  0  0  0  0  0  0  0  0  0  0  0  0  0  0  0  0  0  0  0  0  0  0  0  0  0  0  0  0  0  0  0  0  0  0  0  0  0  0  0  0  0  0  0  0  0  0  0  0  0  0  0  0  0  0  0  0  0  0  0  0  0  0  0  0  0  0  0  0
CONSTANT    2.500000E+01                           #delr                          
CONSTANT    1.000000E+00                           #delc                          
CONSTANT    2.000000E+03                           #model_top                     
CONSTANT    1.975000E+03                           #botm Layer 1                  
CONSTANT    1.950000E+03                           #botm Layer 2                  
CONSTANT    1.925000E+03                           #botm Layer 3                  
CONSTANT    1.900000E+03                           #botm Layer 4                  
CONSTANT    1.875000E+03                           #botm Layer 5                  
CONSTANT    1.850000E+03                           #botm Layer 6                  
CONSTANT    1.825000E+03                           #botm Layer 7                  
CONSTANT    1.800000E+03                           #botm Layer 8                  
CONSTANT    1.775000E+03                           #botm Layer 9                  
CONSTANT    1.750000E+03                           #botm Layer 10                 
CONSTANT    1.725000E+03                           #botm Layer 11                 
CONSTANT    1.700000E+03                           #botm Layer 12                 
CONSTANT    1.675000E+03                           #botm Layer 13                 
CONSTANT    1.650000E+03                           #botm Layer 14                 
CONSTANT    1.625000E+03                           #botm Layer 15                 
CONSTANT    1.600000E+03                           #botm Layer 16                 
CONSTANT    1.575000E+03                           #botm Layer 17                 
CONSTANT    1.550000E+03                           #botm Layer 18                 
CONSTANT    1.525000E+03                           #botm Layer 19                 
CONSTANT    1.500000E+03                           #botm Layer 20                 
CONSTANT    1.475000E+03                           #botm Layer 21                 
CONSTANT    1.450000E+03                           #botm Layer 22                 
CONSTANT    1.425000E+03                           #botm Layer 23                 
CONSTANT    1.400000E+03                           #botm Layer 24                 
CONSTANT    1.375000E+03                           #botm Layer 25                 
CONSTANT    1.350000E+03                           #botm Layer 26                 
CONSTANT    1.325000E+03                           #botm Layer 27                 
CONSTANT    1.300000E+03                           #botm Layer 28                 
CONSTANT    1.275000E+03                           #botm Layer 29                 
CONSTANT    1.250000E+03                           #botm Layer 30                 
CONSTANT    1.225000E+03                           #botm Layer 31                 
CONSTANT    1.200000E+03                           #botm Layer 32                 
CONSTANT    1.175000E+03                           #botm Layer 33                 
CONSTANT    1.150000E+03                           #botm Layer 34                 
CONSTANT    1.125000E+03                           #botm Layer 35                 
CONSTANT    1.100000E+03                           #botm Layer 36                 
CONSTANT    1.075000E+03                           #botm Layer 37                 
CONSTANT    1.050000E+03                           #botm Layer 38                 
CONSTANT    1.025000E+03                           #botm Layer 39                 
CONSTANT    1.000000E+03                           #botm Layer 40                 
CONSTANT    9.750000E+02                           #botm Layer 41                 
CONSTANT    9.500000E+02                           #botm Layer 42                 
CONSTANT    9.250000E+02                           #botm Layer 43                 
CONSTANT    9.000000E+02                           #botm Layer 44                 
CONSTANT    8.750000E+02                           #botm Layer 45                 
CONSTANT    8.500000E+02                           #botm Layer 46                 
CONSTANT    8.250000E+02                           #botm Layer 47                 
CONSTANT    8.000000E+02                           #botm Layer 48                 
CONSTANT    7.750000E+02                           #botm Layer 49                 
CONSTANT    7.500000E+02                           #botm Layer 50                 
CONSTANT    7.250000E+02                           #botm Layer 51                 
CONSTANT    7.000000E+02                           #botm Layer 52                 
CONSTANT    6.750000E+02                           #botm Layer 53                 
CONSTANT    6.500000E+02                           #botm Layer 54                 
CONSTANT    6.250000E+02                           #botm Layer 55                 
CONSTANT    6.000000E+02                           #botm Layer 56                 
CONSTANT    5.750000E+02                           #botm Layer 57                 
CONSTANT    5.500000E+02                           #botm Layer 58                 
CONSTANT    5.250000E+02                           #botm Layer 59                 
CONSTANT    5.000000E+02                           #botm Layer 60                 
CONSTANT    4.750000E+02                           #botm Layer 61                 
CONSTANT    4.500000E+02                           #botm Layer 62                 
CONSTANT    4.250000E+02                           #botm Layer 63                 
CONSTANT    4.000000E+02                           #botm Layer 64                 
CONSTANT    3.750000E+02                           #botm Layer 65                 
CONSTANT    3.500000E+02                           #botm Layer 66                 
CONSTANT    3.250000E+02                           #botm Layer 67                 
CONSTANT    3.000000E+02                           #botm Layer 68                 
CONSTANT    2.750000E+02                           #botm Layer 69                 
CONSTANT    2.500000E+02                           #botm Layer 70                 
CONSTANT    2.250000E+02                           #botm Layer 71                 
CONSTANT    2.000000E+02                           #botm Layer 72                 
CONSTANT    1.750000E+02                           #botm Layer 73                 
CONSTANT    1.500000E+02                           #botm Layer 74                 
CONSTANT    1.250000E+02                           #botm Layer 75                 
CONSTANT    1.000000E+02                           #botm Layer 76                 
CONSTANT    7.500000E+01                           #botm Layer 77                 
CONSTANT    5.000000E+01                           #botm Layer 78                 
CONSTANT    2.500000E+01                           #botm Layer 79                 
CONSTANT    0.000000E+00                           #botm Layer 80                 
   3650.000000             1  1.000000  SS 
