# LPF for MODFLOW, generated by Flopy.
        53    -2E+03         0  CONSTANTCV 
         4         4         4         4         4         4         4         4         4         4         4         4         4         4         4         4         4         4         4         4         4         4         4         4         4         4         4         4         4         4         4         4         4         4         4         4         4         4         4         4         4         4         4         4         4         4         4         4         4         4         4         4         4         4         4         4         4         4         4         4         4         4         4         4         4         4         4         4         4         4         4         4         4         4         4         4         4         4         4         4
         0         0         0         0         0         0         0         0         0         0         0         0         0         0         0         0         0         0         0         0         0         0         0         0         0         0         0         0         0         0         0         0         0         0         0         0         0         0         0         0         0         0         0         0         0         0         0         0         0         0         0         0         0         0         0         0         0         0         0         0         0         0         0         0         0         0         0         0         0         0         0         0         0         0         0         0         0         0         0         0
         1         1         1         1         1         1         1         1         1         1         1         1         1         1         1         1         1         1         1         1         1         1         1         1         1         1         1         1         1         1         1         1         1         1         1         1         1         1         1         1         1         1         1         1         1         1         1         1         1         1         1         1         1         1         1         1         1         1         1         1         1         1         1         1         1         1         1         1         1         1         1         1         1         1         1         1         1         1         1         1
         0         0         0         0         0         0         0         0         0         0         0         0         0         0         0         0         0         0         0         0         0         0         0         0         0         0         0         0         0         0         0         0         0         0         0         0         0         0         0         0         0         0         0         0         0         0         0         0         0         0         0         0         0         0         0         0         0         0         0         0         0         0         0         0         0         0         0         0         0         0         0         0         0         0         0         0         0         0         0         0
         0         0         0         0         0         0         0         0         0         0         0         0         0         0         0         0         0         0         0         0         0         0         0         0         0         0         0         0         0         0         0         0         0         0         0         0         0         0         0         0         0         0         0         0         0         0         0         0         0         0         0         0         0         0         0         0         0         0         0         0         0         0         0         0         0         0         0         0         0         0         0         0         0         0         0         0         0         0         0         0
INTERNAL               1 (400G15.6)  -1 #hk Layer 1                    
   8.475839E-01   8.475839E-01   8.475839E-01   8.475839E-01   8.475839E-01   8.475839E-01   8.475839E-01   8.475839E-01   8.475839E-01   8.475839E-01   8.475839E-01   8.475839E-01   8.475839E-01   8.475839E-01   8.475839E-01   8.475839E-01   8.475839E-01   8.475839E-01   8.475839E-01   8.475839E-01   8.475839E-01   8.475839E-01   8.475839E-01   8.475839E-01   8.475839E-01   8.475839E-01   8.475839E-01   8.475839E-01   8.475839E-01   8.475839E-01   8.475839E-01   8.475839E-01   8.475839E-01   8.475839E-01   8.475839E-01   8.475839E-01   8.475839E-01   8.475839E-01   8.475839E-01   8.475839E-01   8.475839E-01   8.475839E-01   8.475839E-01   8.475839E-01   8.475839E-01   8.475839E-01   8.475839E-01   8.475839E-01   8.475839E-01   8.475839E-01   8.475839E-01   8.475839E-01   8.475839E-01   8.475839E-01   8.475839E-01   8.475839E-01   8.475839E-01   8.475839E-01   8.475839E-01   8.475839E-01   8.475839E-01   8.475839E-01   8.475839E-01   8.475839E-01   8.475839E-01   8.475839E-01   8.475839E-01   8.475839E-01   8.475839E-01   8.475839E-01   8.475839E-01   8.475839E-01   8.475839E-01   8.475839E-01   8.475839E-01   8.475839E-01   8.475839E-01   8.475839E-01   8.475839E-01   8.475839E-01   8.475839E-01   8.475839E-01   8.475839E-01   8.475839E-01   8.475839E-01   8.475839E-01   8.475839E-01   8.475839E-01   8.475839E-01   8.475839E-01   8.475839E-01   8.475839E-01   8.475839E-01   8.475839E-01   8.475839E-01   8.475839E-01   8.475839E-01   8.475839E-01   8.475839E-01   8.475839E-01   8.475839E-01   8.475839E-01   8.475839E-01   8.475839E-01   8.475839E-01   8.475839E-01   8.475839E-01   8.475839E-01   8.475839E-01   8.475839E-01   8.475839E-01   8.475839E-01   8.475839E-01   8.475839E-01   8.475839E-01   8.475839E-01   8.475839E-01   8.475839E-01   8.475839E-01   8.475839E-01   8.475839E-01   8.475839E-01   8.475839E-01   8.475839E-01   8.475839E-01   8.475839E-01   8.475839E-01   8.475839E-01   8.475839E-01   8.475839E-01   8.475839E-01   8.475839E-01   8.475839E-01   8.475839E-01   8.475839E-01   8.475839E-01   8.475839E-01   8.475839E-01   8.475839E-01   8.475839E-01   8.475839E-01   8.475839E-01   8.475839E-01   8.475839E-01   8.475839E-01   8.475839E-01   8.475839E-01   8.475839E-01   8.475839E-01   8.475839E-01   8.475839E-01   8.475839E-01   8.475839E-01   8.475839E-01   8.475839E-01   8.475839E-01   8.475839E-01   8.475839E-01   8.475839E-01   8.475839E-01   8.475839E-01   8.475839E-01   8.475839E-01   8.475839E-01   8.475839E-01   8.475839E-01   8.475839E-01   8.475839E-01   8.475839E-01   8.475839E-01   8.475839E-01   8.475839E-01   8.475839E-01   8.475839E-01   8.475839E-01   8.475839E-01   8.475839E-01   8.475839E-01   8.475839E-01   8.475839E-01   8.475839E-01   8.475839E-01   8.475839E-01   8.475839E-01   8.475839E-01   8.475839E-01   8.475839E-01   8.475839E-01   8.475839E-01   8.475839E-01   8.475839E-01   8.475839E-01   8.475839E-01   8.475839E-01   8.475839E-01   8.475839E-01   8.475839E-01   8.475839E-01   8.475839E-01   8.475839E-01   8.475839E-01   8.475839E-01   8.475839E-01   8.475839E-01   8.475839E-01   8.475839E-01   8.475839E-01   8.475839E-01   8.475839E-01   8.475839E-01   8.475839E-01   8.475839E-01   8.475839E-01   8.475839E-01   8.475839E-01   8.475839E-01   8.475839E-01   8.475839E-01   8.475839E-01   8.475839E-01   8.475839E-01   8.475839E-01   8.475839E-01   8.475839E-01   8.475839E-01   8.475839E-01   8.475839E-01   8.475839E-01   8.475839E-01   8.475839E-01   8.475839E-01   8.475839E-01   8.475839E-01   8.475839E-01   8.475839E-01   8.475839E-01   8.475839E-01   8.475839E-01   8.475839E-01   8.475839E-01   8.475839E-01   8.475839E-01   8.475839E-01   8.475839E-01   8.475839E-01   8.475839E-01   8.475839E-01   8.475839E-01   8.475839E-01   8.475839E-01   8.475839E-01   8.475839E-01   8.475839E-01   8.475839E-01   8.475839E-01   8.475839E-01   8.475839E-01   8.475839E-01   8.475839E-01   8.475839E-01   8.475839E-01   8.475839E-01   8.475839E-01   8.475839E-01   8.475839E-01   8.475839E-01   8.475839E-01   8.475839E-01   8.475839E-01   8.475839E-01   8.475839E-01   8.475839E-01   8.475839E-01   8.475839E-01   8.475839E-01   8.475839E-01   8.475839E-01   8.475839E-01   8.475839E-01   8.475839E-01   8.475839E-01   8.475839E-01   8.475839E-01   8.475839E-01   8.475839E-01   8.475839E-01   8.475839E-01   8.475839E-01   8.475839E-01   8.475839E-01   8.475839E-01   8.475839E-01   8.475839E-01   8.475839E-01   8.475839E-01   8.475839E-01   8.475839E-01   8.475839E-01   8.475839E-01   8.475839E-01   8.475839E-01   8.475839E-01   8.475839E-01   8.475839E-01   8.475839E-01   8.475839E-01   8.475839E-01   8.475839E-01   8.475839E-01   8.475839E-01   8.475839E-01   8.475839E-01   8.475839E-01   8.475839E-01   8.475839E-01   8.475839E-01   8.475839E-01   8.475839E-01   8.475839E-01   8.475839E-01   8.475839E-01   8.475839E-01   8.475839E-01   8.475839E-01   8.475839E-01   8.475839E-01   8.475839E-01   8.475839E-01   8.475839E-01   8.475839E-01   8.475839E-01   8.475839E-01   8.475839E-01   8.475839E-01   8.475839E-01   8.475839E-01   8.475839E-01   8.475839E-01   8.475839E-01   8.475839E-01   8.475839E-01   8.475839E-01   8.475839E-01   8.475839E-01   8.475839E-01   8.475839E-01   8.475839E-01   8.475839E-01   8.475839E-01   8.475839E-01   8.475839E-01   8.475839E-01   8.475839E-01   8.475839E-01   8.475839E-01   8.475839E-01   8.475839E-01   8.475839E-01   8.475839E-01   8.475839E-01   8.475839E-01   8.475839E-01   8.475839E-01   8.475839E-01   8.475839E-01   8.475839E-01   8.475839E-01   8.475839E-01   8.475839E-01   8.475839E-01   8.475839E-01   8.475839E-01   8.475839E-01   8.475839E-01   8.475839E-01   8.475839E-01   8.475839E-01   8.475839E-01   8.475839E-01   8.475839E-01   8.475839E-01   8.475839E-01   8.475839E-01   8.475839E-01   8.475839E-01   8.475839E-01   8.475839E-01   8.475839E-01   8.475839E-01   8.475839E-01   8.475839E-01   8.475839E-01   8.475839E-01   8.475839E-01   8.475839E-01   8.475839E-01   8.475839E-01   8.475839E-01   8.475839E-01   8.475839E-01
INTERNAL               1 (400G15.6)  -1 #vka Layer 1                   
   8.475839E-01   8.475839E-01   8.475839E-01   8.475839E-01   8.475839E-01   8.475839E-01   8.475839E-01   8.475839E-01   8.475839E-01   8.475839E-01   8.475839E-01   8.475839E-01   8.475839E-01   8.475839E-01   8.475839E-01   8.475839E-01   8.475839E-01   8.475839E-01   8.475839E-01   8.475839E-01   8.475839E-01   8.475839E-01   8.475839E-01   8.475839E-01   8.475839E-01   8.475839E-01   8.475839E-01   8.475839E-01   8.475839E-01   8.475839E-01   8.475839E-01   8.475839E-01   8.475839E-01   8.475839E-01   8.475839E-01   8.475839E-01   8.475839E-01   8.475839E-01   8.475839E-01   8.475839E-01   8.475839E-01   8.475839E-01   8.475839E-01   8.475839E-01   8.475839E-01   8.475839E-01   8.475839E-01   8.475839E-01   8.475839E-01   8.475839E-01   8.475839E-01   8.475839E-01   8.475839E-01   8.475839E-01   8.475839E-01   8.475839E-01   8.475839E-01   8.475839E-01   8.475839E-01   8.475839E-01   8.475839E-01   8.475839E-01   8.475839E-01   8.475839E-01   8.475839E-01   8.475839E-01   8.475839E-01   8.475839E-01   8.475839E-01   8.475839E-01   8.475839E-01   8.475839E-01   8.475839E-01   8.475839E-01   8.475839E-01   8.475839E-01   8.475839E-01   8.475839E-01   8.475839E-01   8.475839E-01   8.475839E-01   8.475839E-01   8.475839E-01   8.475839E-01   8.475839E-01   8.475839E-01   8.475839E-01   8.475839E-01   8.475839E-01   8.475839E-01   8.475839E-01   8.475839E-01   8.475839E-01   8.475839E-01   8.475839E-01   8.475839E-01   8.475839E-01   8.475839E-01   8.475839E-01   8.475839E-01   8.475839E-01   8.475839E-01   8.475839E-01   8.475839E-01   8.475839E-01   8.475839E-01   8.475839E-01   8.475839E-01   8.475839E-01   8.475839E-01   8.475839E-01   8.475839E-01   8.475839E-01   8.475839E-01   8.475839E-01   8.475839E-01   8.475839E-01   8.475839E-01   8.475839E-01   8.475839E-01   8.475839E-01   8.475839E-01   8.475839E-01   8.475839E-01   8.475839E-01   8.475839E-01   8.475839E-01   8.475839E-01   8.475839E-01   8.475839E-01   8.475839E-01   8.475839E-01   8.475839E-01   8.475839E-01   8.475839E-01   8.475839E-01   8.475839E-01   8.475839E-01   8.475839E-01   8.475839E-01   8.475839E-01   8.475839E-01   8.475839E-01   8.475839E-01   8.475839E-01   8.475839E-01   8.475839E-01   8.475839E-01   8.475839E-01   8.475839E-01   8.475839E-01   8.475839E-01   8.475839E-01   8.475839E-01   8.475839E-01   8.475839E-01   8.475839E-01   8.475839E-01   8.475839E-01   8.475839E-01   8.475839E-01   8.475839E-01   8.475839E-01   8.475839E-01   8.475839E-01   8.475839E-01   8.475839E-01   8.475839E-01   8.475839E-01   8.475839E-01   8.475839E-01   8.475839E-01   8.475839E-01   8.475839E-01   8.475839E-01   8.475839E-01   8.475839E-01   8.475839E-01   8.475839E-01   8.475839E-01   8.475839E-01   8.475839E-01   8.475839E-01   8.475839E-01   8.475839E-01   8.475839E-01   8.475839E-01   8.475839E-01   8.475839E-01   8.475839E-01   8.475839E-01   8.475839E-01   8.475839E-01   8.475839E-01   8.475839E-01   8.475839E-01   8.475839E-01   8.475839E-01   8.475839E-01   8.475839E-01   8.475839E-01   8.475839E-01   8.475839E-01   8.475839E-01   8.475839E-01   8.475839E-01   8.475839E-01   8.475839E-01   8.475839E-01   8.475839E-01   8.475839E-01   8.475839E-01   8.475839E-01   8.475839E-01   8.475839E-01   8.475839E-01   8.475839E-01   8.475839E-01   8.475839E-01   8.475839E-01   8.475839E-01   8.475839E-01   8.475839E-01   8.475839E-01   8.475839E-01   8.475839E-01   8.475839E-01   8.475839E-01   8.475839E-01   8.475839E-01   8.475839E-01   8.475839E-01   8.475839E-01   8.475839E-01   8.475839E-01   8.475839E-01   8.475839E-01   8.475839E-01   8.475839E-01   8.475839E-01   8.475839E-01   8.475839E-01   8.475839E-01   8.475839E-01   8.475839E-01   8.475839E-01   8.475839E-01   8.475839E-01   8.475839E-01   8.475839E-01   8.475839E-01   8.475839E-01   8.475839E-01   8.475839E-01   8.475839E-01   8.475839E-01   8.475839E-01   8.475839E-01   8.475839E-01   8.475839E-01   8.475839E-01   8.475839E-01   8.475839E-01   8.475839E-01   8.475839E-01   8.475839E-01   8.475839E-01   8.475839E-01   8.475839E-01   8.475839E-01   8.475839E-01   8.475839E-01   8.475839E-01   8.475839E-01   8.475839E-01   8.475839E-01   8.475839E-01   8.475839E-01   8.475839E-01   8.475839E-01   8.475839E-01   8.475839E-01   8.475839E-01   8.475839E-01   8.475839E-01   8.475839E-01   8.475839E-01   8.475839E-01   8.475839E-01   8.475839E-01   8.475839E-01   8.475839E-01   8.475839E-01   8.475839E-01   8.475839E-01   8.475839E-01   8.475839E-01   8.475839E-01   8.475839E-01   8.475839E-01   8.475839E-01   8.475839E-01   8.475839E-01   8.475839E-01   8.475839E-01   8.475839E-01   8.475839E-01   8.475839E-01   8.475839E-01   8.475839E-01   8.475839E-01   8.475839E-01   8.475839E-01   8.475839E-01   8.475839E-01   8.475839E-01   8.475839E-01   8.475839E-01   8.475839E-01   8.475839E-01   8.475839E-01   8.475839E-01   8.475839E-01   8.475839E-01   8.475839E-01   8.475839E-01   8.475839E-01   8.475839E-01   8.475839E-01   8.475839E-01   8.475839E-01   8.475839E-01   8.475839E-01   8.475839E-01   8.475839E-01   8.475839E-01   8.475839E-01   8.475839E-01   8.475839E-01   8.475839E-01   8.475839E-01   8.475839E-01   8.475839E-01   8.475839E-01   8.475839E-01   8.475839E-01   8.475839E-01   8.475839E-01   8.475839E-01   8.475839E-01   8.475839E-01   8.475839E-01   8.475839E-01   8.475839E-01   8.475839E-01   8.475839E-01   8.475839E-01   8.475839E-01   8.475839E-01   8.475839E-01   8.475839E-01   8.475839E-01   8.475839E-01   8.475839E-01   8.475839E-01   8.475839E-01   8.475839E-01   8.475839E-01   8.475839E-01   8.475839E-01   8.475839E-01   8.475839E-01   8.475839E-01   8.475839E-01   8.475839E-01   8.475839E-01   8.475839E-01   8.475839E-01   8.475839E-01   8.475839E-01   8.475839E-01   8.475839E-01   8.475839E-01   8.475839E-01   8.475839E-01   8.475839E-01   8.475839E-01   8.475839E-01   8.475839E-01   8.475839E-01   8.475839E-01   8.475839E-01   8.475839E-01   8.475839E-01   8.475839E-01   8.475839E-01   8.475839E-01   8.475839E-01   8.475839E-01   8.475839E-01
INTERNAL               1 (400G15.6)  -1 #hk Layer 2                    
   8.475839E-01   8.475839E-01   8.475839E-01   8.475839E-01   8.475839E-01   8.475839E-01   8.475839E-01   8.475839E-01   8.475839E-01   8.475839E-01   8.475839E-01   8.475839E-01   8.475839E-01   8.475839E-01   8.475839E-01   8.475839E-01   8.475839E-01   8.475839E-01   8.475839E-01   8.475839E-01   8.475839E-01   8.475839E-01   8.475839E-01   8.475839E-01   8.475839E-01   8.475839E-01   8.475839E-01   8.475839E-01   8.475839E-01   8.475839E-01   8.475839E-01   8.475839E-01   8.475839E-01   8.475839E-01   8.475839E-01   8.475839E-01   8.475839E-01   8.475839E-01   8.475839E-01   8.475839E-01   8.475839E-01   8.475839E-01   8.475839E-01   8.475839E-01   8.475839E-01   8.475839E-01   8.475839E-01   8.475839E-01   8.475839E-01   8.475839E-01   8.475839E-01   8.475839E-01   8.475839E-01   8.475839E-01   8.475839E-01   8.475839E-01   8.475839E-01   8.475839E-01   8.475839E-01   8.475839E-01   8.475839E-01   8.475839E-01   8.475839E-01   8.475839E-01   8.475839E-01   8.475839E-01   8.475839E-01   8.475839E-01   8.475839E-01   8.475839E-01   8.475839E-01   8.475839E-01   8.475839E-01   8.475839E-01   8.475839E-01   8.475839E-01   8.475839E-01   8.475839E-01   8.475839E-01   8.475839E-01   8.475839E-01   8.475839E-01   8.475839E-01   8.475839E-01   8.475839E-01   8.475839E-01   8.475839E-01   8.475839E-01   8.475839E-01   8.475839E-01   8.475839E-01   8.475839E-01   8.475839E-01   8.475839E-01   8.475839E-01   8.475839E-01   8.475839E-01   8.475839E-01   8.475839E-01   8.475839E-01   8.475839E-01   8.475839E-01   8.475839E-01   8.475839E-01   8.475839E-01   8.475839E-01   8.475839E-01   8.475839E-01   8.475839E-01   8.475839E-01   8.475839E-01   8.475839E-01   8.475839E-01   8.475839E-01   8.475839E-01   8.475839E-01   8.475839E-01   8.475839E-01   8.475839E-01   8.475839E-01   8.475839E-01   8.475839E-01   8.475839E-01   8.475839E-01   8.475839E-01   8.475839E-01   8.475839E-01   8.475839E-01   8.475839E-01   8.475839E-01   8.475839E-01   8.475839E-01   8.475839E-01   8.475839E-01   8.475839E-01   8.475839E-01   8.475839E-01   8.475839E-01   8.475839E-01   8.475839E-01   8.475839E-01   8.475839E-01   8.475839E-01   8.475839E-01   8.475839E-01   8.475839E-01   8.475839E-01   8.475839E-01   8.475839E-01   8.475839E-01   8.475839E-01   8.475839E-01   8.475839E-01   8.475839E-01   8.475839E-01   8.475839E-01   8.475839E-01   8.475839E-01   8.475839E-01   8.475839E-01   8.475839E-01   8.475839E-01   8.475839E-01   8.475839E-01   8.475839E-01   8.475839E-01   8.475839E-01   8.475839E-01   8.475839E-01   8.475839E-01   8.475839E-01   8.475839E-01   8.475839E-01   8.475839E-01   8.475839E-01   8.475839E-01   8.475839E-01   8.475839E-01   8.475839E-01   8.475839E-01   8.475839E-01   8.475839E-01   8.475839E-01   8.475839E-01   8.475839E-01   8.475839E-01   8.475839E-01   8.475839E-01   8.475839E-01   8.475839E-01   8.475839E-01   8.475839E-01   8.475839E-01   8.475839E-01   8.475839E-01   8.475839E-01   8.475839E-01   8.475839E-01   8.475839E-01   8.475839E-01   8.475839E-01   8.475839E-01   8.475839E-01   8.475839E-01   8.475839E-01   8.475839E-01   8.475839E-01   8.475839E-01   8.475839E-01   8.475839E-01   8.475839E-01   8.475839E-01   8.475839E-01   8.475839E-01   8.475839E-01   8.475839E-01   8.475839E-01   8.475839E-01   8.475839E-01   8.475839E-01   8.475839E-01   8.475839E-01   8.475839E-01   8.475839E-01   8.475839E-01   8.475839E-01   8.475839E-01   8.475839E-01   8.475839E-01   8.475839E-01   8.475839E-01   8.475839E-01   8.475839E-01   8.475839E-01   8.475839E-01   8.475839E-01   8.475839E-01   8.475839E-01   8.475839E-01   8.475839E-01   8.475839E-01   8.475839E-01   8.475839E-01   8.475839E-01   8.475839E-01   8.475839E-01   8.475839E-01   8.475839E-01   8.475839E-01   8.475839E-01   8.475839E-01   8.475839E-01   8.475839E-01   8.475839E-01   8.475839E-01   8.475839E-01   8.475839E-01   8.475839E-01   8.475839E-01   8.475839E-01   8.475839E-01   8.475839E-01   8.475839E-01   8.475839E-01   8.475839E-01   8.475839E-01   8.475839E-01   8.475839E-01   8.475839E-01   8.475839E-01   8.475839E-01   8.475839E-01   8.475839E-01   8.475839E-01   8.475839E-01   8.475839E-01   8.475839E-01   8.475839E-01   8.475839E-01   8.475839E-01   8.475839E-01   8.475839E-01   8.475839E-01   8.475839E-01   8.475839E-01   8.475839E-01   8.475839E-01   8.475839E-01   8.475839E-01   8.475839E-01   8.475839E-01   8.475839E-01   8.475839E-01   8.475839E-01   8.475839E-01   8.475839E-01   8.475839E-01   8.475839E-01   8.475839E-01   8.475839E-01   8.475839E-01   8.475839E-01   8.475839E-01   8.475839E-01   8.475839E-01   8.475839E-01   8.475839E-01   8.475839E-01   8.475839E-01   8.475839E-01   8.475839E-01   8.475839E-01   8.475839E-01   8.475839E-01   8.475839E-01   8.475839E-01   8.475839E-01   8.475839E-01   8.475839E-01   8.475839E-01   8.475839E-01   8.475839E-01   8.475839E-01   8.475839E-01   8.475839E-01   8.475839E-01   8.475839E-01   8.475839E-01   8.475839E-01   8.475839E-01   8.475839E-01   8.475839E-01   8.475839E-01   8.475839E-01   8.475839E-01   8.475839E-01   8.475839E-01   8.475839E-01   8.475839E-01   8.475839E-01   8.475839E-01   8.475839E-01   8.475839E-01   8.475839E-01   8.475839E-01   8.475839E-01   8.475839E-01   8.475839E-01   8.475839E-01   8.475839E-01   8.475839E-01   8.475839E-01   8.475839E-01   8.475839E-01   8.475839E-01   8.475839E-01   8.475839E-01   8.475839E-01   8.475839E-01   8.475839E-01   8.475839E-01   8.475839E-01   8.475839E-01   8.475839E-01   8.475839E-01   8.475839E-01   8.475839E-01   8.475839E-01   8.475839E-01   8.475839E-01   8.475839E-01   8.475839E-01   8.475839E-01   8.475839E-01   8.475839E-01   8.475839E-01   8.475839E-01   8.475839E-01   8.475839E-01   8.475839E-01   8.475839E-01   8.475839E-01   8.475839E-01   8.475839E-01   8.475839E-01   8.475839E-01   8.475839E-01   8.475839E-01   8.475839E-01   8.475839E-01   8.475839E-01   8.475839E-01   8.475839E-01   8.475839E-01   8.475839E-01   8.475839E-01   8.475839E-01   8.475839E-01   8.475839E-01   8.475839E-01
INTERNAL               1 (400G15.6)  -1 #vka Layer 2                   
   8.475839E-01   8.475839E-01   8.475839E-01   8.475839E-01   8.475839E-01   8.475839E-01   8.475839E-01   8.475839E-01   8.475839E-01   8.475839E-01   8.475839E-01   8.475839E-01   8.475839E-01   8.475839E-01   8.475839E-01   8.475839E-01   8.475839E-01   8.475839E-01   8.475839E-01   8.475839E-01   8.475839E-01   8.475839E-01   8.475839E-01   8.475839E-01   8.475839E-01   8.475839E-01   8.475839E-01   8.475839E-01   8.475839E-01   8.475839E-01   8.475839E-01   8.475839E-01   8.475839E-01   8.475839E-01   8.475839E-01   8.475839E-01   8.475839E-01   8.475839E-01   8.475839E-01   8.475839E-01   8.475839E-01   8.475839E-01   8.475839E-01   8.475839E-01   8.475839E-01   8.475839E-01   8.475839E-01   8.475839E-01   8.475839E-01   8.475839E-01   8.475839E-01   8.475839E-01   8.475839E-01   8.475839E-01   8.475839E-01   8.475839E-01   8.475839E-01   8.475839E-01   8.475839E-01   8.475839E-01   8.475839E-01   8.475839E-01   8.475839E-01   8.475839E-01   8.475839E-01   8.475839E-01   8.475839E-01   8.475839E-01   8.475839E-01   8.475839E-01   8.475839E-01   8.475839E-01   8.475839E-01   8.475839E-01   8.475839E-01   8.475839E-01   8.475839E-01   8.475839E-01   8.475839E-01   8.475839E-01   8.475839E-01   8.475839E-01   8.475839E-01   8.475839E-01   8.475839E-01   8.475839E-01   8.475839E-01   8.475839E-01   8.475839E-01   8.475839E-01   8.475839E-01   8.475839E-01   8.475839E-01   8.475839E-01   8.475839E-01   8.475839E-01   8.475839E-01   8.475839E-01   8.475839E-01   8.475839E-01   8.475839E-01   8.475839E-01   8.475839E-01   8.475839E-01   8.475839E-01   8.475839E-01   8.475839E-01   8.475839E-01   8.475839E-01   8.475839E-01   8.475839E-01   8.475839E-01   8.475839E-01   8.475839E-01   8.475839E-01   8.475839E-01   8.475839E-01   8.475839E-01   8.475839E-01   8.475839E-01   8.475839E-01   8.475839E-01   8.475839E-01   8.475839E-01   8.475839E-01   8.475839E-01   8.475839E-01   8.475839E-01   8.475839E-01   8.475839E-01   8.475839E-01   8.475839E-01   8.475839E-01   8.475839E-01   8.475839E-01   8.475839E-01   8.475839E-01   8.475839E-01   8.475839E-01   8.475839E-01   8.475839E-01   8.475839E-01   8.475839E-01   8.475839E-01   8.475839E-01   8.475839E-01   8.475839E-01   8.475839E-01   8.475839E-01   8.475839E-01   8.475839E-01   8.475839E-01   8.475839E-01   8.475839E-01   8.475839E-01   8.475839E-01   8.475839E-01   8.475839E-01   8.475839E-01   8.475839E-01   8.475839E-01   8.475839E-01   8.475839E-01   8.475839E-01   8.475839E-01   8.475839E-01   8.475839E-01   8.475839E-01   8.475839E-01   8.475839E-01   8.475839E-01   8.475839E-01   8.475839E-01   8.475839E-01   8.475839E-01   8.475839E-01   8.475839E-01   8.475839E-01   8.475839E-01   8.475839E-01   8.475839E-01   8.475839E-01   8.475839E-01   8.475839E-01   8.475839E-01   8.475839E-01   8.475839E-01   8.475839E-01   8.475839E-01   8.475839E-01   8.475839E-01   8.475839E-01   8.475839E-01   8.475839E-01   8.475839E-01   8.475839E-01   8.475839E-01   8.475839E-01   8.475839E-01   8.475839E-01   8.475839E-01   8.475839E-01   8.475839E-01   8.475839E-01   8.475839E-01   8.475839E-01   8.475839E-01   8.475839E-01   8.475839E-01   8.475839E-01   8.475839E-01   8.475839E-01   8.475839E-01   8.475839E-01   8.475839E-01   8.475839E-01   8.475839E-01   8.475839E-01   8.475839E-01   8.475839E-01   8.475839E-01   8.475839E-01   8.475839E-01   8.475839E-01   8.475839E-01   8.475839E-01   8.475839E-01   8.475839E-01   8.475839E-01   8.475839E-01   8.475839E-01   8.475839E-01   8.475839E-01   8.475839E-01   8.475839E-01   8.475839E-01   8.475839E-01   8.475839E-01   8.475839E-01   8.475839E-01   8.475839E-01   8.475839E-01   8.475839E-01   8.475839E-01   8.475839E-01   8.475839E-01   8.475839E-01   8.475839E-01   8.475839E-01   8.475839E-01   8.475839E-01   8.475839E-01   8.475839E-01   8.475839E-01   8.475839E-01   8.475839E-01   8.475839E-01   8.475839E-01   8.475839E-01   8.475839E-01   8.475839E-01   8.475839E-01   8.475839E-01   8.475839E-01   8.475839E-01   8.475839E-01   8.475839E-01   8.475839E-01   8.475839E-01   8.475839E-01   8.475839E-01   8.475839E-01   8.475839E-01   8.475839E-01   8.475839E-01   8.475839E-01   8.475839E-01   8.475839E-01   8.475839E-01   8.475839E-01   8.475839E-01   8.475839E-01   8.475839E-01   8.475839E-01   8.475839E-01   8.475839E-01   8.475839E-01   8.475839E-01   8.475839E-01   8.475839E-01   8.475839E-01   8.475839E-01   8.475839E-01   8.475839E-01   8.475839E-01   8.475839E-01   8.475839E-01   8.475839E-01   8.475839E-01   8.475839E-01   8.475839E-01   8.475839E-01   8.475839E-01   8.475839E-01   8.475839E-01   8.475839E-01   8.475839E-01   8.475839E-01   8.475839E-01   8.475839E-01   8.475839E-01   8.475839E-01   8.475839E-01   8.475839E-01   8.475839E-01   8.475839E-01   8.475839E-01   8.475839E-01   8.475839E-01   8.475839E-01   8.475839E-01   8.475839E-01   8.475839E-01   8.475839E-01   8.475839E-01   8.475839E-01   8.475839E-01   8.475839E-01   8.475839E-01   8.475839E-01   8.475839E-01   8.475839E-01   8.475839E-01   8.475839E-01   8.475839E-01   8.475839E-01   8.475839E-01   8.475839E-01   8.475839E-01   8.475839E-01   8.475839E-01   8.475839E-01   8.475839E-01   8.475839E-01   8.475839E-01   8.475839E-01   8.475839E-01   8.475839E-01   8.475839E-01   8.475839E-01   8.475839E-01   8.475839E-01   8.475839E-01   8.475839E-01   8.475839E-01   8.475839E-01   8.475839E-01   8.475839E-01   8.475839E-01   8.475839E-01   8.475839E-01   8.475839E-01   8.475839E-01   8.475839E-01   8.475839E-01   8.475839E-01   8.475839E-01   8.475839E-01   8.475839E-01   8.475839E-01   8.475839E-01   8.475839E-01   8.475839E-01   8.475839E-01   8.475839E-01   8.475839E-01   8.475839E-01   8.475839E-01   8.475839E-01   8.475839E-01   8.475839E-01   8.475839E-01   8.475839E-01   8.475839E-01   8.475839E-01   8.475839E-01   8.475839E-01   8.475839E-01   8.475839E-01   8.475839E-01   8.475839E-01   8.475839E-01   8.475839E-01   8.475839E-01   8.475839E-01   8.475839E-01   8.475839E-01   8.475839E-01   8.475839E-01   8.475839E-01
INTERNAL               1 (400G15.6)  -1 #hk Layer 3                    