# CHD8 input file, prepared by MF5to6 on 3/7/2016 at 12:39:51.

BEGIN Options
  PRINT_INPUT
  TS6 FILEIN  chd.ts
END Options

BEGIN Dimensions
  MAXBOUND  16
END Dimensions

BEGIN PERIOD 1
  1  1  1    chdh_1
  1  1  2    chdh_1
  1  1  3    chdh_1
  1  1  4    chdh_1
  1  1  5    chdh_1
  1  2  1    chdh_1
  1  2  5    chdh_1
  1  3  1    chdh_1
  1  3  5    chdh_1
  1  4  1    chdh_1
  1  4  5    chdh_1
  1  5  1    chdh_1
  1  5  2    chdh_1
  1  5  3    chdh_1
  1  5  4    chdh_1
  1  5  5    chdh_1
END PERIOD
