# Simulation name file for MODFLOW 6 prepared by MF5to6

BEGIN Options
END Options

BEGIN Timing
  TDIS6  lake0_embedded.tdis
END Timing

BEGIN Models
  GWF6  lake0_embedded.nam  lake0_e
END Models

BEGIN Exchanges
END Exchanges

BEGIN SOLUTIONGROUP 1
  MXITER  1
  IMS6  lake0_embedded.ims  lake0_e
END SOLUTIONGROUP
