BEGIN OPTIONS
  FIXED_CELL
  AUXILIARY MYRCHMULT
#  AUXMULTNAME MYRCHMULT
END OPTIONS

BEGIN DIMENSIONS
  MAXBOUND 10
END DIMENSIONS

BEGIN PERIOD 1
  1 1 1  0.01 2.
  1 1 2  0.01 2.
  1 1 3  0.01 2.
  1 1 4  0.01 2.
  1 1 5  0.01 2.
  1 1 6  0.01 2.
  1 1 7  0.01 2.
  1 1 8  0.01 2.
  1 1 9  0.01 2.
  1 1 10 0.01 2.
END PERIOD
