BEGIN Options
END Options

BEGIN GRIDDATA
  Icelltype LAYERED
    CONSTANT  1
  k  LAYERED
    INTERNAL  FACTOR  1.0  IPRN  12
  0.2000000E-02  0.2000000E-02   0.000000       0.000000       0.000000       0.000000       0.000000       0.000000       0.000000       0.000000
  0.4000000E-03  0.2000000E-02  0.2000000E-02   0.000000       0.000000      0.4000000E-03  0.4000000E-03  0.4000000E-03   0.000000       0.000000
   0.000000      0.4000000E-03  0.2000000E-02  0.2000000E-02  0.4000000E-03  0.4000000E-03  0.4000000E-03  0.4000000E-03   0.000000       0.000000
  0.4000000E-03  0.4000000E-03  0.4000000E-03  0.2000000E-02  0.2000000E-02  0.2000000E-02  0.4000000E-03  0.4000000E-03  0.4000000E-03   0.000000
  0.4000000E-03  0.4000000E-03  0.4000000E-03  0.2000000E-02  0.2000000E-02  0.2000000E-02  0.2000000E-02  0.2000000E-02  0.2000000E-02  0.2000000E-02
  0.4000000E-03  0.4000000E-03  0.4000000E-03  0.2000000E-02  0.2000000E-02  0.2000000E-02  0.2000000E-02  0.2000000E-02  0.4000000E-03  0.4000000E-03
  0.4000000E-03  0.4000000E-03  0.4000000E-03  0.2000000E-02  0.2000000E-02  0.2000000E-02  0.2000000E-02  0.2000000E-02  0.4000000E-03   0.000000
   0.000000      0.4000000E-03  0.4000000E-03  0.2000000E-02  0.2000000E-02  0.2000000E-02  0.2000000E-02  0.4000000E-03  0.4000000E-03   0.000000
   0.000000      0.4000000E-03  0.4000000E-03  0.2000000E-02  0.2000000E-02  0.2000000E-02  0.2000000E-02  0.4000000E-03  0.4000000E-03   0.000000
   0.000000      0.4000000E-03  0.4000000E-03  0.2000000E-02  0.2000000E-02  0.2000000E-02  0.2000000E-02  0.4000000E-03  0.4000000E-03  0.4000000E-03
   0.000000      0.4000000E-03  0.4000000E-03  0.2000000E-02  0.2000000E-02  0.2000000E-02  0.2000000E-02  0.4000000E-03  0.4000000E-03   0.000000
  0.4000000E-03  0.4000000E-03  0.2000000E-02  0.2000000E-02  0.2000000E-02  0.2000000E-02  0.2000000E-02  0.4000000E-03  0.4000000E-03   0.000000
  0.2000000E-02  0.2000000E-02  0.2000000E-02  0.2000000E-02  0.2000000E-02  0.2000000E-02  0.2000000E-02  0.2000000E-02  0.2000000E-02   0.000000
   0.000000      0.4000000E-03  0.4000000E-03  0.4000000E-03  0.4000000E-03  0.4000000E-03  0.4000000E-03  0.4000000E-03  0.2000000E-02   0.000000
   0.000000       0.000000      0.4000000E-03  0.4000000E-03  0.4000000E-03  0.4000000E-03   0.000000       0.000000       0.000000       0.000000
  K33  LAYERED
    CONSTANT   0.100000000E-05
END GRIDDATA
