BEGIN Options
  BUDGET FILEOUT  uzfp2.cbc
  HEAD FILEOUT  uzfp2.hds
  HEAD PRINT_FORMAT  COLUMNS 10  WIDTH 11  DIGITS 4  GENERAL
END Options

BEGIN PERIOD 1
  SAVE BUDGET ALL
  PRINT BUDGET ALL
  SAVE HEAD ALL
  PRINT HEAD ALL
END PERIOD

BEGIN PERIOD 2
  PRINT BUDGET LAST
  SAVE BUDGET LAST
  PRINT HEAD LAST
  SAVE HEAD LAST
END PERIOD
