BEGIN Options
END Options

BEGIN Dimensions
  MAXBOUND  10
END Dimensions

BEGIN PERIOD 1
  1  6  4   -2.0000000
  1  6  5   -2.0000000
  1  7  4   -2.0000000
  1  7  5   -2.0000000
  1  8  4   -2.0000000
  1  8  5   -2.0000000
  1  9  4   -2.0000000
  1  9  5   -2.0000000
  1  10  4   -2.0000000
  1  10  5   -2.0000000
END PERIOD

BEGIN PERIOD 3
  1  6  4   -1.0000000
  1  6  5   -1.0000000
  1  7  4   -1.0000000
  1  7  5   -1.0000000
  1  8  4   -1.0000000
  1  8  5   -1.0000000
  1  9  4   -1.0000000
  1  9  5   -1.0000000
  1  10  4   -1.0000000
  1  10  5   -1.0000000
END PERIOD

BEGIN PERIOD 5
  1  6  4   -3.0000000
  1  6  5   -3.0000000
  1  7  4   -3.0000000
  1  7  5   -3.0000000
  1  8  4   -3.0000000
  1  8  5   -3.0000000
  1  9  4   -3.0000000
  1  9  5   -3.0000000
  1  10  4   -3.0000000
  1  10  5   -3.0000000
END PERIOD

BEGIN PERIOD 6
END PERIOD

BEGIN PERIOD 7
  1  6  4   -2.0000000
  1  6  5   -2.0000000
  1  7  4   -2.0000000
  1  7  5   -2.0000000
  1  8  4   -2.0000000
  1  8  5   -2.0000000
  1  9  4   -2.0000000
  1  9  5   -2.0000000
  1  10  4   -2.0000000
  1  10  5   -2.0000000
END PERIOD

BEGIN PERIOD 8
END PERIOD

BEGIN PERIOD 9
  1  6  4   -1.0000000
  1  6  5   -1.0000000
  1  7  4   -1.0000000
  1  7  5   -1.0000000
  1  8  4   -1.0000000
  1  8  5   -1.0000000
  1  9  4   -1.0000000
  1  9  5   -1.0000000
  1  10  4   -1.0000000
  1  10  5   -1.0000000
END PERIOD

BEGIN PERIOD 10
END PERIOD

BEGIN PERIOD 11
  1  6  4   -3.0000000
  1  6  5   -3.0000000
  1  7  4   -3.0000000
  1  7  5   -3.0000000
  1  8  4   -3.0000000
  1  8  5   -3.0000000
  1  9  4   -3.0000000
  1  9  5   -3.0000000
  1  10  4   -3.0000000
  1  10  5   -3.0000000
END PERIOD

BEGIN PERIOD 12
END PERIOD
