begin options
  print_option summary
end options

begin nonlinear
	outer_dvclose 1.e-7
	outer_maximum 50 
	under_relaxation none dbd
	under_relaxation_theta 0.9
	under_relaxation_kappa 0.100000e-03
	under_relaxation_gamma 0.
	under_relaxation_momentum 0.1
	backtracking_number 0 10
	backtracking_tolerance 2.
	backtracking_reduction_factor 0.6
	backtracking_residual_limit 1.
	#linear_solver xmd
end nonlinear


begin linear
	#inner_dvclose 1.0e-7
	#inner_rclose 1.0e-4
	inner_dvclose 1.0e-2
	inner_rclose 1.0e-1
	inner_maximum 200
	linear_acceleration bicgstab cg
	scaling_method none l2norm diagonal
	reordering_method none
	relaxation_factor 0.99
end linear


begin xmd
	inner_dvclose 1.0e-9
  inner_maximum 200
	linear_acceleration cg bicgstab
	reordering_method none rkm
	preconditioner_levels 0 1 2 4
	number_orthogonalizations 7
	inner_rclose 0. 1.e-3
	preconditioner_drop_tolerance 0. 1.0e-4
end xmd
