BEGIN OPTIONS
  HEAD FILEOUT Reilly.hds
END OPTIONS

BEGIN PERIOD 1
  PRINT BUDGET ALL
  SAVE HEAD ALL
END PERIOD
