BEGIN OPTIONS
  TIME_UNITS DAYS
END OPTIONS

BEGIN DIMENSIONS
  NPER 1
END DIMENSIONS

BEGIN PERIODDATA
 #perlen nstp  tsmult
 1.00000 1     1.
END PERIODDATA
