# CHD8 input file, prepared by MF5to6 on 8/3/2016 at 12:26:19.

BEGIN Options
  PRINT_INPUT
END Options

BEGIN Dimensions
  MAXBOUND  64
END Dimensions

BEGIN PERIOD 1
  1  1  1    160.00000        160.00000
  1  2  1    160.00000        160.00000
  1  3  1    160.00000        160.00000
  1  4  1    160.00000        160.00000
  1  5  1    160.00000        160.00000
  1  6  1    160.00000        160.00000
  1  7  1    160.00000        160.00000
  1  8  1    160.00000        160.00000
  1  9  1    160.00000        160.00000
  1  10  1    160.00000        160.00000
  1  11  1    160.00000        160.00000
  1  12  1    160.00000        160.00000
  1  13  1    160.00000        160.00000
  1  14  1    160.00000        160.00000
  1  15  1    160.00000        160.00000
  1  16  1    160.00000        160.00000
  1  17  1    160.00000        160.00000
  1  1  17    140.00000        140.00000
  1  2  17    140.00000        140.00000
  1  3  17    140.00000        140.00000
  1  4  17    140.00000        140.00000
  1  5  17    140.00000        140.00000
  1  6  17    140.00000        140.00000
  1  7  17    140.00000        140.00000
  1  8  17    140.00000        140.00000
  1  9  17    140.00000        140.00000
  1  10  17    140.00000        140.00000
  1  11  17    140.00000        140.00000
  1  12  17    140.00000        140.00000
  1  13  17    140.00000        140.00000
  1  14  17    140.00000        140.00000
  1  15  17    140.00000        140.00000
  1  16  17    140.00000        140.00000
  1  17  17    140.00000        140.00000
  1  1  2    158.85000        158.85000
  1  1  3    157.31000        157.31000
  1  1  4    155.77000        155.77000
  1  1  5    154.23000        154.23000
  1  1  6    152.69000        152.69000
  1  1  7    151.54000        151.54000
  1  1  8    150.77000        150.77000
  1  1  9    150.00000        150.00000
  1  1  10    149.23000        149.23000
  1  1  11    148.46000        148.46000
  1  1  12    147.31000        147.31000
  1  1  13    145.77000        145.77000
  1  1  14    144.23000        144.23000
  1  1  15    142.69000        142.69000
  1  1  16    141.15000        141.15000
  1  17  2    158.85000        158.85000
  1  17  3    157.31000        157.31000
  1  17  4    155.77000        155.77000
  1  17  5    154.23000        154.23000
  1  17  6    152.69000        152.69000
  1  17  7    151.54000        151.54000
  1  17  8    150.77000        150.77000
  1  17  9    150.00000        150.00000
  1  17  10    149.23000        149.23000
  1  17  11    148.46000        148.46000
  1  17  12    147.31000        147.31000
  1  17  13    145.77000        145.77000
  1  17  14    144.23000        144.23000
  1  17  15    142.69000        142.69000
  1  17  16    141.15000        141.15000
END PERIOD
