BEGIN Options
  LIST       lakeex1b_1layer.lst
END Options

BEGIN Packages
  DIS6       lakeex1b_1layer.dis
  IC6        lakeex1b_1layer.ic
  NPF6       lakeex1b_1layer.npf
  OC6        lakeex1b_1layer.oc
  EVT6       lakeex1b_1layer.evt  'EVT'             
  RCH6       lakeex1b_1layer.rch  'RCH'        
  LAK6       lakeex1b_1layer.lak  'LAK_1'           
  CHD6       lakeex1b_1layer.chd
END Packages

