BEGIN OPTIONS
  READASARRAYS
  FIXED_CELL
END OPTIONS

BEGIN PERIOD 1
  RECHARGE
    constant 4.56600000000000E-0003
END PERIOD
