#option block.  Note -- no comments allowed on auxiliary line
begin options
  PRINT_INPUT (echo input to listing file)
  PRINT_FLOWS  (print the flows to the listing file)
  OBS6 FILEIN        MNW2-Fig28.maw.obs
  NO_WELL_STORAGE
end options

begin dimensions
  NMAWWELLS 1
end dimensions


BEGIN PACKAGEDATA
#      no radius bottom strt     condeqn ngwnodes name          
        1 0.1333   -65.  0.0        MEAN       12 'ntwell'       
END PACKAGEDATA

BEGIN CONNECTIONDATA
#        conn  l  r  c  stop sbot    K       rskin
       1    1  2 30 41    -5  -65 12.5  1.79471628
       1    2  3 30 41    -5  -65 12.5  1.79471628
       1    3  4 30 41    -5  -65 12.5  1.79471628
       1    4  5 30 41    -5  -65 12.5  1.79471628
       1    5  6 30 41    -5  -65 12.5  1.79471628
       1    6  7 30 41    -5  -65 12.5  1.79471628
       1    7  8 30 41    -5  -65 12.5  1.79471628
       1    8  9 30 41    -5  -65 12.5  1.79471628
       1    9 10 30 41    -5  -65 12.5  1.79471628
       1   10 11 30 41    -5  -65 12.5  1.79471628
       1   11 12 30 41    -5  -65 12.5  1.79471628
       1   12 13 30 41    -5  -65 12.5  1.79471628
END CONNECTIONDATA

begin period 1
    1 rate 0.
end period

begin period 2
   1 head_limit -7.5
   1 shut_off 1000. 1500.
   1 rate -10000.0
end period 2
