BEGIN OPTIONS
  #NONE
  LENGTH_UNITS METERS
END OPTIONS

BEGIN DIMENSIONS
  NLAY 41
  NROW 30
  NCOL 272
END DIMENSIONS

BEGIN GRIDDATA
  delr
    open/close delr.ref FACTOR  1.0  IPRN -1
  delc
    open/close delc.ref FACTOR  1.0  IPRN -1
  top LAYERED
    CONSTANT 0.      MODEL TOP
  botm LAYERED
    CONSTANT   -5.0  MODEL BOTTOM LAYER 1
    CONSTANT  -10.0  MODEL BOTTOM LAYER 2
    CONSTANT  -15.0  MODEL BOTTOM LAYER 3
    CONSTANT  -20.0  MODEL BOTTOM LAYER 4
    CONSTANT  -25.0  MODEL BOTTOM LAYER 5
    CONSTANT  -30.0  MODEL BOTTOM LAYER 6
    CONSTANT  -35.0  MODEL BOTTOM LAYER 7
    CONSTANT  -40.0  MODEL BOTTOM LAYER 8
    CONSTANT  -45.0  MODEL BOTTOM LAYER 9
    CONSTANT  -50.0  MODEL BOTTOM LAYER 10
    CONSTANT  -55.0  MODEL BOTTOM LAYER 11
    CONSTANT  -60.0  MODEL BOTTOM LAYER 12
    CONSTANT  -65.0  MODEL BOTTOM LAYER 13
    CONSTANT  -70.0  MODEL BOTTOM LAYER 14
    CONSTANT  -75.0  MODEL BOTTOM LAYER 15
    CONSTANT  -80.0  MODEL BOTTOM LAYER 16
    CONSTANT  -85.0  MODEL BOTTOM LAYER 17
    CONSTANT  -90.0  MODEL BOTTOM LAYER 18
    CONSTANT  -95.0  MODEL BOTTOM LAYER 19
    CONSTANT -100.0  MODEL BOTTOM LAYER 20
    CONSTANT -105.0  MODEL BOTTOM LAYER 21
    CONSTANT -110.0  MODEL BOTTOM LAYER 22
    CONSTANT -115.0  MODEL BOTTOM LAYER 23
    CONSTANT -120.0  MODEL BOTTOM LAYER 24
    CONSTANT -125.0  MODEL BOTTOM LAYER 25
    CONSTANT -130.0  MODEL BOTTOM LAYER 26
    CONSTANT -135.0  MODEL BOTTOM LAYER 27
    CONSTANT -140.0  MODEL BOTTOM LAYER 28
    CONSTANT -145.0  MODEL BOTTOM LAYER 29
    CONSTANT -150.0  MODEL BOTTOM LAYER 30
    CONSTANT -155.0  MODEL BOTTOM LAYER 31
    CONSTANT -160.0  MODEL BOTTOM LAYER 32
    CONSTANT -165.0  MODEL BOTTOM LAYER 33
    CONSTANT -170.0  MODEL BOTTOM LAYER 34
    CONSTANT -175.0  MODEL BOTTOM LAYER 35
    CONSTANT -180.0  MODEL BOTTOM LAYER 36
    CONSTANT -185.0  MODEL BOTTOM LAYER 37
    CONSTANT -190.0  MODEL BOTTOM LAYER 38
    CONSTANT -195.0  MODEL BOTTOM LAYER 39
    CONSTANT -200.0  MODEL BOTTOM LAYER 40
    CONSTANT -205.0  MODEL BOTTOM LAYER 40
  idomain
    constant 1
    
END GRIDDATA




