begin options
  digits 10
end options

#
# Blocks defining continuous observations
#

# for structured option
begin continuous FILEOUT MNW2-Fig28-GWF.csv
  L01          head   1 30 41     # lay row col
  L02          head   2 30 41     # lay row col
  L03          head   3 30 41     # lay row col
  L04          head   4 30 41     # lay row col
  L05          head   5 30 41     # lay row col
  L06          head   6 30 41     # lay row col
  L07          head   7 30 41     # lay row col
  L08          head   8 30 41     # lay row col
  L09          head   9 30 41     # lay row col
  L10          head  10 30 41     # lay row col
  L11          head  11 30 41     # lay row col
  L12          head  12 30 41     # lay row col
  L13          head  13 30 41     # lay row col
  L14          head  14 30 41     # lay row col
  L15          head  15 30 41     # lay row col
  L16          head  16 30 41     # lay row col
  L17          head  17 30 41     # lay row col
  L18          head  18 30 41     # lay row col
  L19          head  19 30 41     # lay row col
  L20          head  20 30 41     # lay row col
  L21          head  21 30 41     # lay row col
  L22          head  22 30 41     # lay row col
  L23          head  23 30 41     # lay row col
  L24          head  24 30 41     # lay row col
  L25          head  25 30 41     # lay row col
  L26          head  26 30 41     # lay row col
  L27          head  27 30 41     # lay row col
  L28          head  28 30 41     # lay row col
  L29          head  29 30 41     # lay row col
  L30          head  30 30 41     # lay row col
  L31          head  31 30 41     # lay row col
  L32          head  32 30 41     # lay row col
  L33          head  33 30 41     # lay row col
  L34          head  34 30 41     # lay row col
  L35          head  35 30 41     # lay row col
  L36          head  36 30 41     # lay row col
  L37          head  37 30 41     # lay row col
  L38          head  38 30 41     # lay row col
  L39          head  39 30 41     # lay row col
  L40          head  40 30 41     # lay row col
  L41          head  41 30 41     # lay row col
end continuous
