BEGIN OPTIONS
  HEAD FILEOUT MNW2-Fig28.hds
END OPTIONS

BEGIN PERIOD 1
  PRINT BUDGET ALL
END PERIOD

BEGIN PERIOD 3
  PRINT BUDGET ALL
  SAVE HEAD LAST
END PERIOD