begin options
  PRINT_INPUT
  PRINT_FLOWS
  SAVE_FLOWS
end options

begin dimensions
  MAXBOUND 30
end dimensions

begin period 1
 1  1  272 0.
 1  2  272 0.
 1  3  272 0.
 1  4  272 0.
 1  5  272 0.
 1  6  272 0.
 1  7  272 0.
 1  8  272 0.
 1  9  272 0.
 1 10  272 0.
 1 11  272 0.
 1 12  272 0.
 1 13  272 0.
 1 14  272 0.
 1 15  272 0.
 1 16  272 0.
 1 17  272 0.
 1 18  272 0.
 1 19  272 0.
 1 20  272 0.
 1 21  272 0.
 1 22  272 0.
 1 23  272 0.
 1 24  272 0.
 1 25  272 0.
 1 26  272 0.
 1 27  272 0.
 1 28  272 0.
 1 29  272 0.
 1 30  272 0.
end period
