#Valley aquifer with 2 sand layers separated by silt.  Stress period 1 is natur
# conditions.  Stress period 2 adds wells.
begin options
end options

BEGIN GRIDDATA
  strt 
    CONSTANT 0.00    STRT LAYER 1-41
END GRIDDATA
