begin options
  PRINT_OPTION SUMMARY
end options

begin nonlinear
	outer_hclose 1.e-6
	outer_maximum 30 
	under_relaxation none dbd
	under_relaxation_theta 0.9
	under_relaxation_kappa 0.100000E-03
	under_relaxation_gamma 0.
	under_relaxation_momentum 0.1
	BACKTRACKING_NUMBER 0 10
	BACKTRACKING_TOLERANCE 2.
	BACKTRACKING_REDUCTION_FACTOR 0.6
	BACKTRACKING_RESIDUAL_LIMIT 1.
	#linear_solver xmd
end nonlinear


begin linear
	inner_hclose 1.0e-6
	inner_rclose 1.0e-0
	inner_maximum 100
	linear_acceleration cg
	scaling_method none
	REORDERING_METHOD none
	relaxation_factor 1.0
end linear


begin xmd
	inner_hclose 1.0e-4
  inner_maximum 200
	LINEAR_ACCELERATION bicgstab
	reordering_method none rkm
	PRECONDITIONER_LEVELS 4
	NUMBER_ORTHOGONALIZATIONS 7
	inner_rclose 0.
	PRECONDITIONER_DROP_TOLERANCE 1.0e-4
end xmd
