BEGIN OPTIONS
  TIME_UNITS DAYS
END OPTIONS

BEGIN DIMENSIONS
  NPER 3
END DIMENSIONS

BEGIN PERIODDATA
 #perlen nstp  tsmult
1.000000000000E+000  1 1.300000000000E+000 
1.500000000000E+002 12 1.300000000000E+000 
1.500000000000E+002 12 1.300000000000E+000 

END PERIODDATA
