# Discretization file for MODFLOW, generated by Flopy.
         1         1        10         1         4         2
  0
CONSTANT    1.000000E+02                           #delr                          
CONSTANT    1.000000E+03                           #delc                          
CONSTANT    1.000000E+01                           #model_top                     
CONSTANT   -1.000000E+01                           #botm Layer 1                  
      1.000000             1  1.000000  SS 
