# OC8 input file, prepared by MF5to6 on 4/1/2016 at 11:10:36.

BEGIN Options
  HEAD FILEOUT  lakeex4.hds
  HEAD PRINT_FORMAT  COLUMNS 10  WIDTH 11  DIGITS 4  GENERAL
END Options

BEGIN PERIOD 1
  PRINT BUDGET ALL
  SAVE HEAD ALL
  PRINT HEAD ALL
END PERIOD
