begin options
  digits 10
  print_input
end options

begin Continuous FILEOUT lakeex4.lak.csv
  L1STAGE  STAGE  1
  L1VOL    VOLUME 1
  L2STAGE  STAGE  2
  L2VOL    VOLUME 2
end Continuous
