# SMS for MODFLOW-USG, generated by Flopy.
0.000001 0.000001 500 100 2 1 2
0.7 0.08 0.05 0.0 20 2.0 0.2 0.0005
BCGS 3      0     0     1e0     0.97
CLIN IPC    ISCL  IORD  RCLOSE  RELAX


0.7 0.08 0.05 0.0 20 2.0 0.2 0.0005
2 0 8 2 0 0.0001 0 0.001
