begin options
  print_option summary
end options

begin nonlinear
  outer_dvclose 1.e-3
  outer_maximum 20 
  under_relaxation none
end nonlinear

begin linear
  inner_dvclose 1.0e-3
  inner_rclose 1000.
  inner_maximum 30
  linear_acceleration cg
  scaling_method none
  reordering_method none
  relaxation_factor 0.97
end linear
