# Name file for mf2005, generated by Flopy.
begin options
end options

BEGIN PACKAGES
  DIS6             model.dis
  IC6              model.ic
  NPF6             model.npf
  STO6             model.sto
  OC6              model.oc
  WEL6             model.wel
END PACKAGES

