BEGIN OPTIONS
  HEAD FILEOUT model1.hds
  BUDGET FILEOUT model1.cbc
END OPTIONS

BEGIN PERIOD 1
  PRINT BUDGET LAST
  SAVE BUDGET LAST
  PRINT HEAD LAST
  SAVE HEAD LAST
END PERIOD
