BEGIN OPTIONS
  HEAD FILEOUT model2.hds
  BUDGET FILEOUT model2.cbc
END OPTIONS

BEGIN PERIOD 1
  PRINT BUDGET LAST
  SAVE BUDGET LAST
  PRINT HEAD LAST
  SAVE HEAD LAST
END PERIOD
