BEGIN OPTIONS
  NEWTON
END OPTIONS

BEGIN PACKAGES
  DIS6           model1.dis
  IC6            model1.ic
  NPF6           model1.npf
  STO6           model1.sto
  CHD6           model1.chd
  OC6            model1.oc
END PACKAGES

