begin options
  SAVE_FLOWS
end options
#
BEGIN GRIDDATA
  #iconvert(nodes) is 0:confined, 1:convertible
  iconvert
    constant 1
  #ss(nodes) specific storage
  ss
    constant 1.e-5
  #sy(nodes) specific yield
  sy
    constant 0.2
END GRIDDATA

