BEGIN OPTIONS
  TIME_UNITS DAYS
END OPTIONS

BEGIN DIMENSIONS
  NPER 1
END DIMENSIONS

BEGIN PERIODDATA
 #perlen nstp  tsmult
    50.0   10    1.0
END PERIODDATA
