BEGIN OPTIONS
  HEAD FILEOUT NT_Transient.hds
END OPTIONS

BEGIN PERIOD 1
  PRINT BUDGET STEPS 1 10 20 30 40 50
  SAVE HEAD FREQUENCY 1
END PERIOD
