BEGIN OPTIONS
  FIXED_CELL
END OPTIONS

BEGIN DIMENSIONS
  MAXBOUND  10
END DIMENSIONS

BEGIN PERIOD 1
 1  1  0.000
 1  2  0.000
 1  3  0.000
 1  4  0.000
 1  5  0.000
 1  6  0.000
 1  7  0.000
 1  8  0.000
 1  9  0.000
 1  10 0.000
END PERIOD 1
