begin options
  PRINT_INPUT
  PRINT_FLOWS
  SAVE_FLOWS
end options

begin dimensions
  MAXBOUND 14
end dimensions

begin period 1
1  1 1.
1  8 1.
1 15 1.
1 19 1.
1 23 1.
1 27 1.
1 34 1.

1  7 0.
1 14 0.
1 18 0.
1 22 0.
1 26 0.
1 33 0.
1 40 0.
end period
