BEGIN OPTIONS
  PRINT_INPUT
  PRINT_FLOWS
END OPTIONS

BEGIN DIMENSIONS
  NUMGNC 24
  NUMALPHAJ 1
END DIMENSIONS

BEGIN GNCDATA
 1 10  1 44  1 9  0.333333333333 
 1 10  1 87  1 11  0.333333333333 
 1 11  1 92  1 10  0.333333333333 
 1 11  1 88  1 12  0.333333333333 
 1 12  1 71  1 11  0.333333333333 
 1 12  1 45  1 13  0.333333333333 
 1 16  1 43  1 9  0.333333333333 
 1 16  1 69  1 20  0.333333333333 
 1 17  1 46  1 13  0.333333333333 
 1 17  1 96  1 21  0.333333333333 
 1 20  1 79  1 16  0.333333333333 
 1 20  1 83  1 24  0.333333333333 
 1 21  1 101  1 17  0.333333333333 
 1 21  1 97  1 25  0.333333333333 
 1 24  1 78  1 20  0.333333333333 
 1 24  1 42  1 28  0.333333333333 
 1 25  1 73  1 21  0.333333333333 
 1 25  1 47  1 32  0.333333333333 
 1 29  1 41  1 28  0.333333333333 
 1 29  1 75  1 30  0.333333333333 
 1 30  1 106  1 29  0.333333333333 
 1 30  1 110  1 31  0.333333333333 
 1 31  1 105  1 30  0.333333333333 
 1 31  1 48  1 32  0.333333333333 
END GNCDATA