
BEGIN OPTIONS
  SAVE_FLOWS
END OPTIONS

BEGIN DIMENSIONS
  MAXBOUND 202
END DIMENSIONS

BEGIN PERIOD 1
  1 0.0
  2 0.0
  3 0.0
  4 0.0
  5 0.0
  6 0.0
  7 0.0
  8 0.0
  9 0.0
  10 0.0
  11 0.0
  12 0.0
  13 0.0
  14 0.0
  15 0.0
  16 0.0
  17 0.0
  18 0.0
  19 0.0
  20 0.0
  21 0.0
  22 0.0
  23 0.0
  24 0.0
  25 0.0
  26 0.0
  27 0.0
  28 0.0
  29 0.0
  30 0.0
  31 0.0
  32 0.0
  33 0.0
  34 0.0
  35 0.0
  36 0.0
  37 0.0
  38 0.0
  39 0.0
  40 0.0
  41 0.0
  42 0.0
  43 0.0
  44 0.0
  45 0.0
  46 0.0
  47 0.0
  48 0.0
  49 0.0
  50 0.0
  51 0.0
  52 0.0
  102 0.0
  103 0.0
  153 0.0
  154 0.0
  204 0.0
  205 0.0
  255 0.0
  256 0.0
  306 0.0
  307 0.0
  357 0.0
  358 0.0
  408 0.0
  409 0.0
  459 0.0
  460 0.0
  510 0.0
  511 0.0
  561 0.0
  562 0.0
  612 0.0
  613 0.0
  663 0.0
  664 0.0
  714 0.0
  715 0.0
  765 0.0
  766 0.0
  816 0.0
  817 0.0
  867 0.0
  868 0.0
  918 0.0
  919 0.0
  969 0.0
  970 0.0
  1020 0.0
  1021 0.0
  1071 0.0
  1072 0.0
  1122 0.0
  1123 0.0
  1173 0.0
  1174 0.0
  1224 0.0
  1225 0.0
  1275 0.0
  1276 0.0
  1326 0.0
  1327 0.0
  1377 0.0
  1378 0.0
  1428 0.0
  1429 0.0
  1479 0.0
  1480 0.0
  1530 0.0
  1531 0.0
  1581 0.0
  1582 0.0
  1632 0.0
  1633 0.0
  1683 0.0
  1684 0.0
  1734 0.0
  1735 0.0
  1785 0.0
  1786 0.0
  1836 0.0
  1837 0.0
  1887 0.0
  1888 0.0
  1938 0.0
  1939 0.0
  1989 0.0
  1990 0.0
  2040 0.0
  2041 0.0
  2091 0.0
  2092 0.0
  2142 0.0
  2143 0.0
  2193 0.0
  2194 0.0
  2244 0.0
  2245 0.0
  2295 0.0
  2296 0.0
  2346 0.0
  2347 0.0
  2397 0.0
  2398 0.0
  2448 0.0
  2449 0.0
  2499 0.0
  2500 0.0
  2550 0.0
  2551 0.0
  2552 0.0
  2553 0.0
  2554 0.0
  2555 0.0
  2556 0.0
  2557 0.0
  2558 0.0
  2559 0.0
  2560 0.0
  2561 0.0
  2562 0.0
  2563 0.0
  2564 0.0
  2565 0.0
  2566 0.0
  2567 0.0
  2568 0.0
  2569 0.0
  2570 0.0
  2571 0.0
  2572 0.0
  2573 0.0
  2574 0.0
  2575 0.0
  2576 0.0
  2577 0.0
  2578 0.0
  2579 0.0
  2580 0.0
  2581 0.0
  2582 0.0
  2583 0.0
  2584 0.0
  2585 0.0
  2586 0.0
  2587 0.0
  2588 0.0
  2589 0.0
  2590 0.0
  2591 0.0
  2592 0.0
  2593 0.0
  2594 0.0
  2595 0.0
  2596 0.0
  2597 0.0
  2598 0.0
  2599 0.0
  2600 0.0
  2601 0.0
END PERIOD
