# NPF8 input file, prepared by mf5to15 on 4/10/2015 at 9:04:54.

BEGIN Options
  SAVE_FLOWS
END Options

BEGIN GRIDDATA
  ICELLTYPE
    CONSTANT  0
  K
    CONSTANT   1.00000000
  K33
    CONSTANT   1.00000000
  K22
    CONSTANT 0.01
END GRIDDATA
