# IC8 input file, prepared by MF5to6 on 3/14/2016 at 12:30:00.

BEGIN Options
END Options

BEGIN GRIDDATA
  STRT LAYERED
    INTERNAL  FACTOR    1.00000000      IPRN  1    Initial head for layer 1
   120.000000       119.000000       118.000000       117.000000       116.000000       115.000000    
   120.000000       119.000000       118.000000       117.000000       116.000000       115.000000    
   120.000000       119.000000       118.000000       117.000000       116.000000       115.000000    
   120.000000       119.000000       118.000000       117.000000       116.000000       115.000000    
   120.000000       119.000000       118.000000       117.000000       116.000000       115.000000    
   120.000000       119.000000       118.000000       117.000000       116.000000       115.000000    
   120.000000       119.000000       118.000000       117.000000       116.000000       115.000000    
    CONSTANT    120.000000        Initial head for layer 2
    CONSTANT    120.000000        Initial head for layer 3
END GRIDDATA
