# OC8 input file, prepared by MF5to6 on 2/25/2016 at 16:36:36.

BEGIN Options
  HEAD FILEOUT  lakeex1b.hds
  HEAD PRINT_FORMAT  COLUMNS 17  WIDTH 6  DIGITS 1  FIXED
END Options

BEGIN PERIOD 1
  PRINT BUDGET ALL
  SAVE HEAD ALL
  PRINT HEAD ALL
END PERIOD
