# CHD8 input file, prepared by MF5to6 on 2/25/2016 at 16:36:36.

BEGIN Options
  PRINT_INPUT
END Options

BEGIN Dimensions
  MAXBOUND  320
END Dimensions

BEGIN PERIOD 1
  1  1  1    160.00000        160.00000
  1  2  1    160.00000        160.00000
  1  3  1    160.00000        160.00000
  1  4  1    160.00000        160.00000
  1  5  1    160.00000        160.00000
  1  6  1    160.00000        160.00000
  1  7  1    160.00000        160.00000
  1  8  1    160.00000        160.00000
  1  9  1    160.00000        160.00000
  1  10  1    160.00000        160.00000
  1  11  1    160.00000        160.00000
  1  12  1    160.00000        160.00000
  1  13  1    160.00000        160.00000
  1  14  1    160.00000        160.00000
  1  15  1    160.00000        160.00000
  1  16  1    160.00000        160.00000
  1  17  1    160.00000        160.00000
  1  1  17    140.00000        140.00000
  1  2  17    140.00000        140.00000
  1  3  17    140.00000        140.00000
  1  4  17    140.00000        140.00000
  1  5  17    140.00000        140.00000
  1  6  17    140.00000        140.00000
  1  7  17    140.00000        140.00000
  1  8  17    140.00000        140.00000
  1  9  17    140.00000        140.00000
  1  10  17    140.00000        140.00000
  1  11  17    140.00000        140.00000
  1  12  17    140.00000        140.00000
  1  13  17    140.00000        140.00000
  1  14  17    140.00000        140.00000
  1  15  17    140.00000        140.00000
  1  16  17    140.00000        140.00000
  1  17  17    140.00000        140.00000
  2  1  1    160.00000        160.00000
  2  2  1    160.00000        160.00000
  2  3  1    160.00000        160.00000
  2  4  1    160.00000        160.00000
  2  5  1    160.00000        160.00000
  2  6  1    160.00000        160.00000
  2  7  1    160.00000        160.00000
  2  8  1    160.00000        160.00000
  2  9  1    160.00000        160.00000
  2  10  1    160.00000        160.00000
  2  11  1    160.00000        160.00000
  2  12  1    160.00000        160.00000
  2  13  1    160.00000        160.00000
  2  14  1    160.00000        160.00000
  2  15  1    160.00000        160.00000
  2  16  1    160.00000        160.00000
  2  17  1    160.00000        160.00000
  2  1  17    140.00000        140.00000
  2  2  17    140.00000        140.00000
  2  3  17    140.00000        140.00000
  2  4  17    140.00000        140.00000
  2  5  17    140.00000        140.00000
  2  6  17    140.00000        140.00000
  2  7  17    140.00000        140.00000
  2  8  17    140.00000        140.00000
  2  9  17    140.00000        140.00000
  2  10  17    140.00000        140.00000
  2  11  17    140.00000        140.00000
  2  12  17    140.00000        140.00000
  2  13  17    140.00000        140.00000
  2  14  17    140.00000        140.00000
  2  15  17    140.00000        140.00000
  2  16  17    140.00000        140.00000
  2  17  17    140.00000        140.00000
  3  1  1    160.00000        160.00000
  3  2  1    160.00000        160.00000
  3  3  1    160.00000        160.00000
  3  4  1    160.00000        160.00000
  3  5  1    160.00000        160.00000
  3  6  1    160.00000        160.00000
  3  7  1    160.00000        160.00000
  3  8  1    160.00000        160.00000
  3  9  1    160.00000        160.00000
  3  10  1    160.00000        160.00000
  3  11  1    160.00000        160.00000
  3  12  1    160.00000        160.00000
  3  13  1    160.00000        160.00000
  3  14  1    160.00000        160.00000
  3  15  1    160.00000        160.00000
  3  16  1    160.00000        160.00000
  3  17  1    160.00000        160.00000
  3  1  17    140.00000        140.00000
  3  2  17    140.00000        140.00000
  3  3  17    140.00000        140.00000
  3  4  17    140.00000        140.00000
  3  5  17    140.00000        140.00000
  3  6  17    140.00000        140.00000
  3  7  17    140.00000        140.00000
  3  8  17    140.00000        140.00000
  3  9  17    140.00000        140.00000
  3  10  17    140.00000        140.00000
  3  11  17    140.00000        140.00000
  3  12  17    140.00000        140.00000
  3  13  17    140.00000        140.00000
  3  14  17    140.00000        140.00000
  3  15  17    140.00000        140.00000
  3  16  17    140.00000        140.00000
  3  17  17    140.00000        140.00000
  4  1  1    160.00000        160.00000
  4  2  1    160.00000        160.00000
  4  3  1    160.00000        160.00000
  4  4  1    160.00000        160.00000
  4  5  1    160.00000        160.00000
  4  6  1    160.00000        160.00000
  4  7  1    160.00000        160.00000
  4  8  1    160.00000        160.00000
  4  9  1    160.00000        160.00000
  4  10  1    160.00000        160.00000
  4  11  1    160.00000        160.00000
  4  12  1    160.00000        160.00000
  4  13  1    160.00000        160.00000
  4  14  1    160.00000        160.00000
  4  15  1    160.00000        160.00000
  4  16  1    160.00000        160.00000
  4  17  1    160.00000        160.00000
  4  1  17    140.00000        140.00000
  4  2  17    140.00000        140.00000
  4  3  17    140.00000        140.00000
  4  4  17    140.00000        140.00000
  4  5  17    140.00000        140.00000
  4  6  17    140.00000        140.00000
  4  7  17    140.00000        140.00000
  4  8  17    140.00000        140.00000
  4  9  17    140.00000        140.00000
  4  10  17    140.00000        140.00000
  4  11  17    140.00000        140.00000
  4  12  17    140.00000        140.00000
  4  13  17    140.00000        140.00000
  4  14  17    140.00000        140.00000
  4  15  17    140.00000        140.00000
  4  16  17    140.00000        140.00000
  4  17  17    140.00000        140.00000
  5  1  1    160.00000        160.00000
  5  2  1    160.00000        160.00000
  5  3  1    160.00000        160.00000
  5  4  1    160.00000        160.00000
  5  5  1    160.00000        160.00000
  5  6  1    160.00000        160.00000
  5  7  1    160.00000        160.00000
  5  8  1    160.00000        160.00000
  5  9  1    160.00000        160.00000
  5  10  1    160.00000        160.00000
  5  11  1    160.00000        160.00000
  5  12  1    160.00000        160.00000
  5  13  1    160.00000        160.00000
  5  14  1    160.00000        160.00000
  5  15  1    160.00000        160.00000
  5  16  1    160.00000        160.00000
  5  17  1    160.00000        160.00000
  5  1  17    140.00000        140.00000
  5  2  17    140.00000        140.00000
  5  3  17    140.00000        140.00000
  5  4  17    140.00000        140.00000
  5  5  17    140.00000        140.00000
  5  6  17    140.00000        140.00000
  5  7  17    140.00000        140.00000
  5  8  17    140.00000        140.00000
  5  9  17    140.00000        140.00000
  5  10  17    140.00000        140.00000
  5  11  17    140.00000        140.00000
  5  12  17    140.00000        140.00000
  5  13  17    140.00000        140.00000
  5  14  17    140.00000        140.00000
  5  15  17    140.00000        140.00000
  5  16  17    140.00000        140.00000
  5  17  17    140.00000        140.00000
  1  1  2    158.85000        158.85000
  1  1  3    157.31000        157.31000
  1  1  4    155.77000        155.77000
  1  1  5    154.23000        154.23000
  1  1  6    152.69000        152.69000
  1  1  7    151.54000        151.54000
  1  1  8    150.77000        150.77000
  1  1  9    150.00000        150.00000
  1  1  10    149.23000        149.23000
  1  1  11    148.46000        148.46000
  1  1  12    147.31000        147.31000
  1  1  13    145.77000        145.77000
  1  1  14    144.23000        144.23000
  1  1  15    142.69000        142.69000
  1  1  16    141.15000        141.15000
  1  17  2    158.85000        158.85000
  1  17  3    157.31000        157.31000
  1  17  4    155.77000        155.77000
  1  17  5    154.23000        154.23000
  1  17  6    152.69000        152.69000
  1  17  7    151.54000        151.54000
  1  17  8    150.77000        150.77000
  1  17  9    150.00000        150.00000
  1  17  10    149.23000        149.23000
  1  17  11    148.46000        148.46000
  1  17  12    147.31000        147.31000
  1  17  13    145.77000        145.77000
  1  17  14    144.23000        144.23000
  1  17  15    142.69000        142.69000
  1  17  16    141.15000        141.15000
  2  1  2    158.85000        158.85000
  2  1  3    157.31000        157.31000
  2  1  4    155.77000        155.77000
  2  1  5    154.23000        154.23000
  2  1  6    152.69000        152.69000
  2  1  7    151.54000        151.54000
  2  1  8    150.77000        150.77000
  2  1  9    150.00000        150.00000
  2  1  10    149.23000        149.23000
  2  1  11    148.46000        148.46000
  2  1  12    147.31000        147.31000
  2  1  13    145.77000        145.77000
  2  1  14    144.23000        144.23000
  2  1  15    142.69000        142.69000
  2  1  16    141.15000        141.15000
  2  17  2    158.85000        158.85000
  2  17  3    157.31000        157.31000
  2  17  4    155.77000        155.77000
  2  17  5    154.23000        154.23000
  2  17  6    152.69000        152.69000
  2  17  7    151.54000        151.54000
  2  17  8    150.77000        150.77000
  2  17  9    150.00000        150.00000
  2  17  10    149.23000        149.23000
  2  17  11    148.46000        148.46000
  2  17  12    147.31000        147.31000
  2  17  13    145.77000        145.77000
  2  17  14    144.23000        144.23000
  2  17  15    142.69000        142.69000
  2  17  16    141.15000        141.15000
  3  1  2    158.85000        158.85000
  3  1  3    157.31000        157.31000
  3  1  4    155.77000        155.77000
  3  1  5    154.23000        154.23000
  3  1  6    152.69000        152.69000
  3  1  7    151.54000        151.54000
  3  1  8    150.77000        150.77000
  3  1  9    150.00000        150.00000
  3  1  10    149.23000        149.23000
  3  1  11    148.46000        148.46000
  3  1  12    147.31000        147.31000
  3  1  13    145.77000        145.77000
  3  1  14    144.23000        144.23000
  3  1  15    142.69000        142.69000
  3  1  16    141.15000        141.15000
  3  17  2    158.85000        158.85000
  3  17  3    157.31000        157.31000
  3  17  4    155.77000        155.77000
  3  17  5    154.23000        154.23000
  3  17  6    152.69000        152.69000
  3  17  7    151.54000        151.54000
  3  17  8    150.77000        150.77000
  3  17  9    150.00000        150.00000
  3  17  10    149.23000        149.23000
  3  17  11    148.46000        148.46000
  3  17  12    147.31000        147.31000
  3  17  13    145.77000        145.77000
  3  17  14    144.23000        144.23000
  3  17  15    142.69000        142.69000
  3  17  16    141.15000        141.15000
  4  1  2    158.85000        158.85000
  4  1  3    157.31000        157.31000
  4  1  4    155.77000        155.77000
  4  1  5    154.23000        154.23000
  4  1  6    152.69000        152.69000
  4  1  7    151.54000        151.54000
  4  1  8    150.77000        150.77000
  4  1  9    150.00000        150.00000
  4  1  10    149.23000        149.23000
  4  1  11    148.46000        148.46000
  4  1  12    147.31000        147.31000
  4  1  13    145.77000        145.77000
  4  1  14    144.23000        144.23000
  4  1  15    142.69000        142.69000
  4  1  16    141.15000        141.15000
  4  17  2    158.85000        158.85000
  4  17  3    157.31000        157.31000
  4  17  4    155.77000        155.77000
  4  17  5    154.23000        154.23000
  4  17  6    152.69000        152.69000
  4  17  7    151.54000        151.54000
  4  17  8    150.77000        150.77000
  4  17  9    150.00000        150.00000
  4  17  10    149.23000        149.23000
  4  17  11    148.46000        148.46000
  4  17  12    147.31000        147.31000
  4  17  13    145.77000        145.77000
  4  17  14    144.23000        144.23000
  4  17  15    142.69000        142.69000
  4  17  16    141.15000        141.15000
  5  1  2    158.85000        158.85000
  5  1  3    157.31000        157.31000
  5  1  4    155.77000        155.77000
  5  1  5    154.23000        154.23000
  5  1  6    152.69000        152.69000
  5  1  7    151.54000        151.54000
  5  1  8    150.77000        150.77000
  5  1  9    150.00000        150.00000
  5  1  10    149.23000        149.23000
  5  1  11    148.46000        148.46000
  5  1  12    147.31000        147.31000
  5  1  13    145.77000        145.77000
  5  1  14    144.23000        144.23000
  5  1  15    142.69000        142.69000
  5  1  16    141.15000        141.15000
  5  17  2    158.85000        158.85000
  5  17  3    157.31000        157.31000
  5  17  4    155.77000        155.77000
  5  17  5    154.23000        154.23000
  5  17  6    152.69000        152.69000
  5  17  7    151.54000        151.54000
  5  17  8    150.77000        150.77000
  5  17  9    150.00000        150.00000
  5  17  10    149.23000        149.23000
  5  17  11    148.46000        148.46000
  5  17  12    147.31000        147.31000
  5  17  13    145.77000        145.77000
  5  17  14    144.23000        144.23000
  5  17  15    142.69000        142.69000
  5  17  16    141.15000        141.15000
END PERIOD
