# RCH8 input file, prepared by MF5to6 on 2/25/2016 at 16:36:36.

BEGIN Options
  READASARRAYS
END Options

BEGIN PERIOD 1
  RECHARGE
    CONSTANT   0.11600000E-01
END PERIOD
