# Simulation name file for MODFLOW 6 prepared by MF5to6

BEGIN Options
END Options

BEGIN Timing
  TDIS6  lakeex1b.tdis
END Timing

BEGIN Models
  GWF6  lakeex1b.nam  lakeex1b
END Models

BEGIN Exchanges
END Exchanges

BEGIN SOLUTIONGROUP 1
  MXITER  1
  IMS6  lakeex1b.ims  lakeex1b
END SOLUTIONGROUP
