# LAK8 input file, prepared by MF5to6 on 8/3/2016 at 12:26:19.

BEGIN Options
  PRINT_INPUT
  TIME_CONVERSION    86400.000    
  DEV_GROUNDWATER_HEAD_CONDUCTANCE
END Options

BEGIN Dimensions
  NLAKES  1
END Dimensions

BEGIN PACKAGEDATA
  #   lakeno    strt        nlakeconn
           1    110.00000      45
END PACKAGEDATA

BEGIN CONNECTIONDATA
  # lakeno iconn cellid claktype     bedleak         belev           telev           connlen         connwidth
        1  1  1  6  7  HORIZONTAL   0.1000000        0.000000        0.000000        500.0000        500.0000    
        1  2  1  6  8  HORIZONTAL   0.1000000        0.000000        0.000000        500.0000        500.0000    
        1  3  1  6  9  HORIZONTAL   0.1000000        0.000000        0.000000        500.0000        500.0000    
        1  4  1  6  10  HORIZONTAL   0.1000000        0.000000        0.000000        500.0000        500.0000    
        1  5  1  6  11  HORIZONTAL   0.1000000        0.000000        0.000000        500.0000        500.0000    
        1  6  1  7  6  HORIZONTAL   0.1000000        0.000000        0.000000        500.0000        500.0000    
        1  7  1  7  12  HORIZONTAL   0.1000000        0.000000        0.000000        500.0000        500.0000    
        1  8  1  8  6  HORIZONTAL   0.1000000        0.000000        0.000000        500.0000        500.0000    
        1  9  1  8  12  HORIZONTAL   0.1000000        0.000000        0.000000        500.0000        500.0000    
        1  10  1  9  6  HORIZONTAL   0.1000000        0.000000        0.000000        500.0000        500.0000    
        1  11  1  9  12  HORIZONTAL   0.1000000        0.000000        0.000000        500.0000        500.0000    
        1  12  1  10  6  HORIZONTAL   0.1000000        0.000000        0.000000        500.0000        500.0000    
        1  13  1  10  12  HORIZONTAL   0.1000000        0.000000        0.000000        500.0000        500.0000    
        1  14  1  11  6  HORIZONTAL   0.1000000        0.000000        0.000000        500.0000        500.0000    
        1  15  1  11  12  HORIZONTAL   0.1000000        0.000000        0.000000        500.0000        500.0000    
        1  16  1  12  7  HORIZONTAL   0.1000000        0.000000        0.000000        500.0000        500.0000    
        1  17  1  12  8  HORIZONTAL   0.1000000        0.000000        0.000000        500.0000        500.0000    
        1  18  1  12  9  HORIZONTAL   0.1000000        0.000000        0.000000        500.0000        500.0000    
        1  19  1  12  10  HORIZONTAL   0.1000000        0.000000        0.000000        500.0000        500.0000    
        1  20  1  12  11  HORIZONTAL   0.1000000        0.000000        0.000000        500.0000        500.0000    
           1    21     1   7      7    VERTICAL     0.1     0     0   0     0
           1    22     1   8      7    VERTICAL     0.1     0     0   0     0
           1    23     1   9      7    VERTICAL     0.1     0     0   0     0
           1    24     1  10      7    VERTICAL     0.1     0     0   0     0
           1    25     1  11      7    VERTICAL     0.1     0     0   0     0
           1    26     1   7      8    VERTICAL     0.1     0     0   0     0
           1    27     1   8      8    VERTICAL     0.1     0     0   0     0
           1    28     1   9      8    VERTICAL     0.1     0     0   0     0
           1    29     1  10      8    VERTICAL     0.1     0     0   0     0
           1    30     1  11      8    VERTICAL     0.1     0     0   0     0
           1    31     1   7      9    VERTICAL     0.1     0     0   0     0
           1    32     1   8      9    VERTICAL     0.1     0     0   0     0
           1    33     1   9      9    VERTICAL     0.1     0     0   0     0
           1    34     1  10      9    VERTICAL     0.1     0     0   0     0
           1    35     1  11      9    VERTICAL     0.1     0     0   0     0
           1    36     1   7     10    VERTICAL     0.1     0     0   0     0
           1    37     1   8     10    VERTICAL     0.1     0     0   0     0
           1    38     1   9     10    VERTICAL     0.1     0     0   0     0
           1    39     1  10     10    VERTICAL     0.1     0     0   0     0
           1    40     1  11     10    VERTICAL     0.1     0     0   0     0
           1    41     1   7     11    VERTICAL     0.1     0     0   0     0
           1    42     1   8     11    VERTICAL     0.1     0     0   0     0
           1    43     1   9     11    VERTICAL     0.1     0     0   0     0
           1    44     1  10     11    VERTICAL     0.1     0     0   0     0
           1    45     1  11     11    VERTICAL     0.1     0     0   0     0

END CONNECTIONDATA

BEGIN PERIOD 1
  1  rainfall   0.11600000E-01
  1  evaporation   0.10300000E-01
  1  runoff    0.0000000
  1  withdrawal    0.0000000
END PERIOD
