# DIS8 input file, prepared by MF5to6 on 8/3/2016 at 12:26:19.

BEGIN Options
  LENGTH_UNITS  UNDEFINED
END Options

BEGIN Dimensions
  NLAY  1
  NROW  17
  NCOL  17
END Dimensions

BEGIN GRIDDATA
  DELR
    INTERNAL  FACTOR    1.00000000      IPRN  3    DELR
   250.000000       1000.00000       1000.00000       1000.00000       1000.00000       1000.00000       500.000000       500.000000       500.000000       500.000000    
   500.000000       1000.00000       1000.00000       1000.00000       1000.00000       1000.00000       250.000000    
  DELC
    INTERNAL  FACTOR    1.00000000      IPRN  3    DELC
   250.000000       1000.00000       1000.00000       1000.00000       1000.00000       1000.00000       500.000000       500.000000       500.000000       500.000000    
   500.000000       1000.00000       1000.00000       1000.00000       1000.00000       1000.00000       250.000000    
  TOP LAYERED
    INTERNAL  FACTOR  1  IPRN  5    TOP layer 1
  500  500  500  500  500  500  500  500  500  500  500  500  500  500  500  500  500
  500  500  500  500  500  500  500  500  500  500  500  500  500  500  500  500  500
  500  500  500  500  500  500  500  500  500  500  500  500  500  500  500  500  500
  500  500  500  500  500  500  500  500  500  500  500  500  500  500  500  500  500
  500  500  500  500  500  500  500  500  500  500  500  500  500  500  500  500  500
  500  500  500  500  500  500  500  500  500  500  500  500  500  500  500  500  500
  500  500  500  500  500  500   67   67   67   67   67  500  500  500  500  500  500
  500  500  500  500  500  500   67   67   67   67   67  500  500  500  500  500  500
  500  500  500  500  500  500   67   67   67   67   67  500  500  500  500  500  500
  500  500  500  500  500  500   67   67   67   67   67  500  500  500  500  500  500
  500  500  500  500  500  500   67   67   67   67   67  500  500  500  500  500  500
  500  500  500  500  500  500  500  500  500  500  500  500  500  500  500  500  500
  500  500  500  500  500  500  500  500  500  500  500  500  500  500  500  500  500
  500  500  500  500  500  500  500  500  500  500  500  500  500  500  500  500  500
  500  500  500  500  500  500  500  500  500  500  500  500  500  500  500  500  500
  500  500  500  500  500  500  500  500  500  500  500  500  500  500  500  500  500
  500  500  500  500  500  500  500  500  500  500  500  500  500  500  500  500  500
  BOTM LAYERED
    INTERNAL  FACTOR  1  IPRN  5    BOTM layer 1
   67   67   67   67   67   67   67   67   67   67   67   67   67   67   67   67   67
   67   67   67   67   67   67   67   67   67   67   67   67   67   67   67   67   67
   67   67   67   67   67   67   67   67   67   67   67   67   67   67   67   67   67
   67   67   67   67   67   67   67   67   67   67   67   67   67   67   67   67   67
   67   67   67   67   67   67   67   67   67   67   67   67   67   67   67   67   67
   67   67   67   67   67   67   67   67   67   67   67   67   67   67   67   67   67
   67   67   67   67   67   67   66   66   66   66   66   67   67   67   67   67   67
   67   67   67   67   67   67   66   66   66   66   66   67   67   67   67   67   67
   67   67   67   67   67   67   66   66   66   66   66   67   67   67   67   67   67
   67   67   67   67   67   67   66   66   66   66   66   67   67   67   67   67   67
   67   67   67   67   67   67   66   66   66   66   66   67   67   67   67   67   67
   67   67   67   67   67   67   67   67   67   67   67   67   67   67   67   67   67
   67   67   67   67   67   67   67   67   67   67   67   67   67   67   67   67   67
   67   67   67   67   67   67   67   67   67   67   67   67   67   67   67   67   67
   67   67   67   67   67   67   67   67   67   67   67   67   67   67   67   67   67
   67   67   67   67   67   67   67   67   67   67   67   67   67   67   67   67   67
   67   67   67   67   67   67   67   67   67   67   67   67   67   67   67   67   67
END GRIDDATA
