# IC8 input file, prepared by MF5to6 on 8/3/2016 at 12:26:19.

BEGIN Options
END Options

BEGIN GRIDDATA
  STRT LAYERED
    INTERNAL  FACTOR  1  IPRN  5    STRT layer 1
  115  115  115  115  115  115  115  115  115  115  115  115  115  115  115  115  115
  115  115  115  115  115  115  115  115  115  115  115  115  115  115  115  115  115
  115  115  115  115  115  115  115  115  115  115  115  115  115  115  115  115  115
  115  115  115  115  115  115  115  115  115  115  115  115  115  115  115  115  115
  115  115  115  115  115  115  115  115  115  115  115  115  115  115  115  115  115
  115  115  115  115  115  115  115  115  115  115  115  115  115  115  115  115  115
  115  115  115  115  115  115   65   65   65   65   65  115  115  115  115  115  115
  115  115  115  115  115  115   65   65   65   65   65  115  115  115  115  115  115
  115  115  115  115  115  115   65   65   65   65   65  115  115  115  115  115  115
  115  115  115  115  115  115   65   65   65   65   65  115  115  115  115  115  115
  115  115  115  115  115  115   65   65   65   65   65  115  115  115  115  115  115
  115  115  115  115  115  115  115  115  115  115  115  115  115  115  115  115  115
  115  115  115  115  115  115  115  115  115  115  115  115  115  115  115  115  115
  115  115  115  115  115  115  115  115  115  115  115  115  115  115  115  115  115
  115  115  115  115  115  115  115  115  115  115  115  115  115  115  115  115  115
  115  115  115  115  115  115  115  115  115  115  115  115  115  115  115  115  115
  115  115  115  115  115  115  115  115  115  115  115  115  115  115  115  115  115
END GRIDDATA
