# NPF8 input file, prepared by MF5to6 on 8/3/2016 at 12:26:19.

BEGIN Options
  PERCHED
  REWET WETFCT 1.0 IWETIT 1 IHDWET 0
END Options

BEGIN GRIDDATA
  Icelltype LAYERED
    CONSTANT  1
  k  LAYERED
    CONSTANT    30.0000000    
  K33  LAYERED
    CONSTANT    1.00000000    
  WETDRY LAYERED
    INTERNAL  FACTOR  1.0  IPRN  12
   0.000000       0.000000       0.000000       0.000000       0.000000       0.000000       0.000000       0.000000       0.000000       0.000000    
   0.000000       0.000000       0.000000       0.000000       0.000000       0.000000       0.000000    
   0.000000     -0.2000000     -0.2000000     -0.2000000     -0.2000000     -0.2000000     -0.2000000     -0.2000000     -0.2000000     -0.2000000    
 -0.2000000     -0.2000000     -0.2000000     -0.2000000     -0.2000000     -0.2000000       0.000000    
   0.000000     -0.2000000     -0.2000000     -0.2000000     -0.2000000     -0.2000000     -0.2000000     -0.2000000     -0.2000000     -0.2000000    
 -0.2000000     -0.2000000     -0.2000000     -0.2000000     -0.2000000     -0.2000000       0.000000    
   0.000000     -0.2000000     -0.2000000     -0.2000000     -0.2000000     -0.2000000     -0.2000000     -0.2000000     -0.2000000     -0.2000000    
 -0.2000000     -0.2000000     -0.2000000     -0.2000000     -0.2000000     -0.2000000       0.000000    
   0.000000     -0.2000000     -0.2000000     -0.2000000     -0.2000000     -0.2000000     -0.2000000     -0.2000000     -0.2000000     -0.2000000    
 -0.2000000     -0.2000000     -0.2000000     -0.2000000     -0.2000000     -0.2000000       0.000000    
   0.000000     -0.2000000     -0.2000000     -0.2000000     -0.2000000     -0.2000000     -0.2000000     -0.2000000     -0.2000000     -0.2000000    
 -0.2000000     -0.2000000     -0.2000000     -0.2000000     -0.2000000     -0.2000000       0.000000    
   0.000000     -0.2000000     -0.2000000     -0.2000000     -0.2000000     -0.2000000       0.000000       0.000000       0.000000       0.000000    
   0.000000     -0.2000000     -0.2000000     -0.2000000     -0.2000000     -0.2000000       0.000000    
   0.000000     -0.2000000     -0.2000000     -0.2000000     -0.2000000     -0.2000000       0.000000       0.000000       0.000000       0.000000    
   0.000000     -0.2000000     -0.2000000     -0.2000000     -0.2000000     -0.2000000       0.000000    
   0.000000     -0.2000000     -0.2000000     -0.2000000     -0.2000000     -0.2000000       0.000000       0.000000       0.000000       0.000000    
   0.000000     -0.2000000     -0.2000000     -0.2000000     -0.2000000     -0.2000000       0.000000    
   0.000000     -0.2000000     -0.2000000     -0.2000000     -0.2000000     -0.2000000       0.000000       0.000000       0.000000       0.000000    
   0.000000     -0.2000000     -0.2000000     -0.2000000     -0.2000000     -0.2000000       0.000000    
   0.000000     -0.2000000     -0.2000000     -0.2000000     -0.2000000     -0.2000000       0.000000       0.000000       0.000000       0.000000    
   0.000000     -0.2000000     -0.2000000     -0.2000000     -0.2000000     -0.2000000       0.000000    
   0.000000     -0.2000000     -0.2000000     -0.2000000     -0.2000000     -0.2000000     -0.2000000     -0.2000000     -0.2000000     -0.2000000    
 -0.2000000     -0.2000000     -0.2000000     -0.2000000     -0.2000000     -0.2000000       0.000000    
   0.000000     -0.2000000     -0.2000000     -0.2000000     -0.2000000     -0.2000000     -0.2000000     -0.2000000     -0.2000000     -0.2000000    
 -0.2000000     -0.2000000     -0.2000000     -0.2000000     -0.2000000     -0.2000000       0.000000    
   0.000000     -0.2000000     -0.2000000     -0.2000000     -0.2000000     -0.2000000     -0.2000000     -0.2000000     -0.2000000     -0.2000000    
 -0.2000000     -0.2000000     -0.2000000     -0.2000000     -0.2000000     -0.2000000       0.000000    
   0.000000     -0.2000000     -0.2000000     -0.2000000     -0.2000000     -0.2000000     -0.2000000     -0.2000000     -0.2000000     -0.2000000    
 -0.2000000     -0.2000000     -0.2000000     -0.2000000     -0.2000000     -0.2000000       0.000000    
   0.000000     -0.2000000     -0.2000000     -0.2000000     -0.2000000     -0.2000000     -0.2000000     -0.2000000     -0.2000000     -0.2000000    
 -0.2000000     -0.2000000     -0.2000000     -0.2000000     -0.2000000     -0.2000000       0.000000    
   0.000000       0.000000       0.000000       0.000000       0.000000       0.000000       0.000000       0.000000       0.000000       0.000000    
   0.000000       0.000000       0.000000       0.000000       0.000000       0.000000       0.000000    
END GRIDDATA
