# OC8 input file, prepared by MF5to6 on 8/3/2016 at 12:26:19.

BEGIN Options
  HEAD FILEOUT  lakeex1b_1layerb.hds
  HEAD PRINT_FORMAT  COLUMNS 10  WIDTH 11  DIGITS 4  GENERAL
END Options

BEGIN PERIOD 1
  PRINT BUDGET ALL
  SAVE HEAD ALL
  PRINT HEAD ALL
END PERIOD
