begin dimensions
  nrow 151
  ncol   3
end dimensions

begin table
#        stage        volume         sarea
   6.70000E+01   0.00000E+00   6.25000E+06
   6.98867E+01   1.80417E+07   6.25000E+06
   7.27733E+01   3.60833E+07   6.25000E+06
   7.56600E+01   5.41250E+07   6.25000E+06
   7.85467E+01   7.21667E+07   6.25000E+06
   8.14333E+01   9.02083E+07   6.25000E+06
   8.43200E+01   1.08250E+08   6.25000E+06
   8.72067E+01   1.26292E+08   6.25000E+06
   9.00933E+01   1.44333E+08   6.25000E+06
   9.29800E+01   1.62375E+08   6.25000E+06
   9.58667E+01   1.80417E+08   6.25000E+06
   9.87533E+01   1.98458E+08   6.25000E+06
   1.01640E+02   2.16500E+08   6.25000E+06
   1.04527E+02   2.34542E+08   6.25000E+06
   1.07413E+02   2.52583E+08   6.25000E+06
   1.10300E+02   2.70625E+08   6.25000E+06
   1.13187E+02   2.88667E+08   6.25000E+06
   1.16073E+02   3.06708E+08   6.25000E+06
   1.18960E+02   3.24750E+08   6.25000E+06
   1.21847E+02   3.42792E+08   6.25000E+06
   1.24733E+02   3.60833E+08   6.25000E+06
   1.27620E+02   3.78875E+08   6.25000E+06
   1.30507E+02   3.96917E+08   6.25000E+06
   1.33393E+02   4.14958E+08   6.25000E+06
   1.36280E+02   4.33000E+08   6.25000E+06
   1.39167E+02   4.51042E+08   6.25000E+06
   1.42053E+02   4.69083E+08   6.25000E+06
   1.44940E+02   4.87125E+08   6.25000E+06
   1.47827E+02   5.05167E+08   6.25000E+06
   1.50713E+02   5.23208E+08   6.25000E+06
   1.53600E+02   5.41250E+08   6.25000E+06
   1.56487E+02   5.59292E+08   6.25000E+06
   1.59373E+02   5.77333E+08   6.25000E+06
   1.62260E+02   5.95375E+08   6.25000E+06
   1.65147E+02   6.13417E+08   6.25000E+06
   1.68033E+02   6.31458E+08   6.25000E+06
   1.70920E+02   6.49500E+08   6.25000E+06
   1.73807E+02   6.67542E+08   6.25000E+06
   1.76693E+02   6.85583E+08   6.25000E+06
   1.79580E+02   7.03625E+08   6.25000E+06
   1.82467E+02   7.21667E+08   6.25000E+06
   1.85353E+02   7.39708E+08   6.25000E+06
   1.88240E+02   7.57750E+08   6.25000E+06
   1.91127E+02   7.75792E+08   6.25000E+06
   1.94013E+02   7.93833E+08   6.25000E+06
   1.96900E+02   8.11875E+08   6.25000E+06
   1.99787E+02   8.29917E+08   6.25000E+06
   2.02673E+02   8.47958E+08   6.25000E+06
   2.05560E+02   8.66000E+08   6.25000E+06
   2.08447E+02   8.84042E+08   6.25000E+06
   2.11333E+02   9.02083E+08   6.25000E+06
   2.14220E+02   9.20125E+08   6.25000E+06
   2.17107E+02   9.38167E+08   6.25000E+06
   2.19993E+02   9.56208E+08   6.25000E+06
   2.22880E+02   9.74250E+08   6.25000E+06
   2.25767E+02   9.92292E+08   6.25000E+06
   2.28653E+02   1.01033E+09   6.25000E+06
   2.31540E+02   1.02837E+09   6.25000E+06
   2.34427E+02   1.04642E+09   6.25000E+06
   2.37313E+02   1.06446E+09   6.25000E+06
   2.40200E+02   1.08250E+09   6.25000E+06
   2.43087E+02   1.10054E+09   6.25000E+06
   2.45973E+02   1.11858E+09   6.25000E+06
   2.48860E+02   1.13662E+09   6.25000E+06
   2.51747E+02   1.15467E+09   6.25000E+06
   2.54633E+02   1.17271E+09   6.25000E+06
   2.57520E+02   1.19075E+09   6.25000E+06
   2.60407E+02   1.20879E+09   6.25000E+06
   2.63293E+02   1.22683E+09   6.25000E+06
   2.66180E+02   1.24487E+09   6.25000E+06
   2.69067E+02   1.26292E+09   6.25000E+06
   2.71953E+02   1.28096E+09   6.25000E+06
   2.74840E+02   1.29900E+09   6.25000E+06
   2.77727E+02   1.31704E+09   6.25000E+06
   2.80613E+02   1.33508E+09   6.25000E+06
   2.83500E+02   1.35313E+09   6.25000E+06
   2.86387E+02   1.37117E+09   6.25000E+06
   2.89273E+02   1.38921E+09   6.25000E+06
   2.92160E+02   1.40725E+09   6.25000E+06
   2.95047E+02   1.42529E+09   6.25000E+06
   2.97933E+02   1.44333E+09   6.25000E+06
   3.00820E+02   1.46138E+09   6.25000E+06
   3.03707E+02   1.47942E+09   6.25000E+06
   3.06593E+02   1.49746E+09   6.25000E+06
   3.09480E+02   1.51550E+09   6.25000E+06
   3.12367E+02   1.53354E+09   6.25000E+06
   3.15253E+02   1.55158E+09   6.25000E+06
   3.18140E+02   1.56963E+09   6.25000E+06
   3.21027E+02   1.58767E+09   6.25000E+06
   3.23913E+02   1.60571E+09   6.25000E+06
   3.26800E+02   1.62375E+09   6.25000E+06
   3.29687E+02   1.64179E+09   6.25000E+06
   3.32573E+02   1.65983E+09   6.25000E+06
   3.35460E+02   1.67788E+09   6.25000E+06
   3.38347E+02   1.69592E+09   6.25000E+06
   3.41233E+02   1.71396E+09   6.25000E+06
   3.44120E+02   1.73200E+09   6.25000E+06
   3.47007E+02   1.75004E+09   6.25000E+06
   3.49893E+02   1.76808E+09   6.25000E+06
   3.52780E+02   1.78613E+09   6.25000E+06
   3.55667E+02   1.80417E+09   6.25000E+06
   3.58553E+02   1.82221E+09   6.25000E+06
   3.61440E+02   1.84025E+09   6.25000E+06
   3.64327E+02   1.85829E+09   6.25000E+06
   3.67213E+02   1.87633E+09   6.25000E+06
   3.70100E+02   1.89438E+09   6.25000E+06
   3.72987E+02   1.91242E+09   6.25000E+06
   3.75873E+02   1.93046E+09   6.25000E+06
   3.78760E+02   1.94850E+09   6.25000E+06
   3.81647E+02   1.96654E+09   6.25000E+06
   3.84533E+02   1.98458E+09   6.25000E+06
   3.87420E+02   2.00263E+09   6.25000E+06
   3.90307E+02   2.02067E+09   6.25000E+06
   3.93193E+02   2.03871E+09   6.25000E+06
   3.96080E+02   2.05675E+09   6.25000E+06
   3.98967E+02   2.07479E+09   6.25000E+06
   4.01853E+02   2.09283E+09   6.25000E+06
   4.04740E+02   2.11088E+09   6.25000E+06
   4.07627E+02   2.12892E+09   6.25000E+06
   4.10513E+02   2.14696E+09   6.25000E+06
   4.13400E+02   2.16500E+09   6.25000E+06
   4.16287E+02   2.18304E+09   6.25000E+06
   4.19173E+02   2.20108E+09   6.25000E+06
   4.22060E+02   2.21913E+09   6.25000E+06
   4.24947E+02   2.23717E+09   6.25000E+06
   4.27833E+02   2.25521E+09   6.25000E+06
   4.30720E+02   2.27325E+09   6.25000E+06
   4.33607E+02   2.29129E+09   6.25000E+06
   4.36493E+02   2.30933E+09   6.25000E+06
   4.39380E+02   2.32738E+09   6.25000E+06
   4.42267E+02   2.34542E+09   6.25000E+06
   4.45153E+02   2.36346E+09   6.25000E+06
   4.48040E+02   2.38150E+09   6.25000E+06
   4.50927E+02   2.39954E+09   6.25000E+06
   4.53813E+02   2.41758E+09   6.25000E+06
   4.56700E+02   2.43563E+09   6.25000E+06
   4.59587E+02   2.45367E+09   6.25000E+06
   4.62473E+02   2.47171E+09   6.25000E+06
   4.65360E+02   2.48975E+09   6.25000E+06
   4.68247E+02   2.50779E+09   6.25000E+06
   4.71133E+02   2.52583E+09   6.25000E+06
   4.74020E+02   2.54388E+09   6.25000E+06
   4.76907E+02   2.56192E+09   6.25000E+06
   4.79793E+02   2.57996E+09   6.25000E+06
   4.82680E+02   2.59800E+09   6.25000E+06
   4.85567E+02   2.61604E+09   6.25000E+06
   4.88453E+02   2.63408E+09   6.25000E+06
   4.91340E+02   2.65212E+09   6.25000E+06
   4.94227E+02   2.67017E+09   6.25000E+06
   4.97113E+02   2.68821E+09   6.25000E+06
   5.00000E+02   2.70625E+09   6.25000E+06
end table