# IC8 input file, prepared by MF5to6 on 8/3/2016 at 12:26:19.

BEGIN Options
END Options

BEGIN GRIDDATA
  STRT LAYERED
    CONSTANT 140. STRT layer 1
END GRIDDATA
