BEGIN Options
  LIST       lakeex1b_1layerc.lst
END Options

BEGIN Packages
  DIS6       lakeex1b_1layerc.dis
  IC6        lakeex1b_1layerc.ic
  NPF6       lakeex1b_1layerc.npf
  OC6        lakeex1b_1layerc.oc
  EVT6       lakeex1b_1layerc.evt  'EVT'             
  RCH6       lakeex1b_1layerc.rch  'RCH'        
  LAK6       lakeex1b_1layerc.lak  'LAK_1'           
  CHD6       lakeex1b_1layerc.chd
END Packages

