# LAK8 input file, prepared by MF5to6 on 8/3/2016 at 12:26:19.

BEGIN Options
  PRINT_INPUT
  PRINT_STAGE
  PRINT_FLOWS
  TIME_CONVERSION    86400.000    
  DEV_GROUNDWATER_HEAD_CONDUCTANCE
END Options

BEGIN Dimensions
  NLAKES  1
  NTABLES 1
END Dimensions

BEGIN PACKAGEDATA
# lakeno    strt        nlakeconn
       1    110.00000      20
END PACKAGEDATA

BEGIN CONNECTIONDATA
  # lakeno iconn cellid      claktype     bedleak          belev           telev           connlen         connwidth
         1     1  1   6   7  HORIZONTAL   0.1000000        0.000000        0.000000        500.0000        500.0000    
         1     2  1   6   8  HORIZONTAL   0.1000000        0.000000        0.000000        500.0000        500.0000    
         1     3  1   6   9  HORIZONTAL   0.1000000        0.000000        0.000000        500.0000        500.0000    
         1     4  1   6  10  HORIZONTAL   0.1000000        0.000000        0.000000        500.0000        500.0000    
         1     5  1   6  11  HORIZONTAL   0.1000000        0.000000        0.000000        500.0000        500.0000    
         1     6  1   7   6  HORIZONTAL   0.1000000        0.000000        0.000000        500.0000        500.0000    
         1     7  1   7  12  HORIZONTAL   0.1000000        0.000000        0.000000        500.0000        500.0000    
         1     8  1   8   6  HORIZONTAL   0.1000000        0.000000        0.000000        500.0000        500.0000    
         1     9  1   8  12  HORIZONTAL   0.1000000        0.000000        0.000000        500.0000        500.0000    
         1    10  1   9   6  HORIZONTAL   0.1000000        0.000000        0.000000        500.0000        500.0000    
         1    11  1   9  12  HORIZONTAL   0.1000000        0.000000        0.000000        500.0000        500.0000    
         1    12  1  10   6  HORIZONTAL   0.1000000        0.000000        0.000000        500.0000        500.0000    
         1    13  1  10  12  HORIZONTAL   0.1000000        0.000000        0.000000        500.0000        500.0000    
         1    14  1  11   6  HORIZONTAL   0.1000000        0.000000        0.000000        500.0000        500.0000    
         1    15  1  11  12  HORIZONTAL   0.1000000        0.000000        0.000000        500.0000        500.0000    
         1    16  1  12   7  HORIZONTAL   0.1000000        0.000000        0.000000        500.0000        500.0000    
         1    17  1  12   8  HORIZONTAL   0.1000000        0.000000        0.000000        500.0000        500.0000    
         1    18  1  12   9  HORIZONTAL   0.1000000        0.000000        0.000000        500.0000        500.0000    
         1    19  1  12  10  HORIZONTAL   0.1000000        0.000000        0.000000        500.0000        500.0000    
         1    20  1  12  11  HORIZONTAL   0.1000000        0.000000        0.000000        500.0000        500.0000    
END CONNECTIONDATA

BEGIN TABLES
  1 TAB6 FILEIN lakeex1b_1layerc_table.ref
END TABLES

BEGIN PERIOD 1
  1  rainfall   0.11600000E-01
  1  evaporation   0.10300000E-01
  1  runoff    0.0000000
  1  withdrawal    0.0000000
END PERIOD
