# RCH8 input file, prepared by MF5to6 on 8/3/2016 at 12:26:19.

BEGIN Options
  READASARRAYS
END Options

BEGIN PERIOD 1
  RECHARGE
    CONSTANT   0.11600000E-01
END PERIOD
