# EVT8 input file, prepared by MF5to6 on 8/3/2016 at 12:26:19.

BEGIN Options
  READASARRAYS
  PRINT_INPUT
END Options

BEGIN PERIOD 1
  RATE
    CONSTANT   0.14100000E-01
  DEPTH
    CONSTANT    15.000000    
  SURFACE
    CONSTANT   140.000000    
END PERIOD
