# Simulation name file for MODFLOW 6 prepared by MF5to6

BEGIN Options
END Options

BEGIN Timing
  TDIS6  uzfp3_lakmvr_nouzf.tdis
END Timing

BEGIN Models
  GWF6  uzfp3_lakmvr_nouzf.nam  lakmvr_nouzf
END Models

BEGIN Exchanges
END Exchanges

BEGIN SOLUTIONGROUP 1
  MXITER  1
  IMS6  uzfp3_lakmvr_nouzf.ims  lakmvr_nouzf
END SOLUTIONGROUP
