# RCH8 input file, prepared by MF5to6 on 7/29/2016 at 12:57:25.

BEGIN Options
  READASARRAYS
  PRINT_FLOWS
END Options

BEGIN PERIOD 1
  RECHARGE
    INTERNAL  FACTOR  1.0  IPRN  12
 0.1000000E-08  0.2000000E-08   0.000000       0.000000       0.000000       0.000000
  0.000000       0.000000       0.000000       0.000000
 0.2000000E-08  0.1000000E-08  0.2000000E-08   0.000000       0.000000      0.8000000E-08
 0.8000000E-08  0.5000000E-08   0.000000       0.000000
  0.000000      0.5000000E-08  0.1000000E-08  0.1000000E-08  0.8000000E-08  0.8000000E-08
 0.5000000E-08  0.5000000E-08   0.000000       0.000000
 0.8000000E-08  0.5000000E-08  0.1000000E-08  0.1000000E-08  0.1000000E-08  0.1000000E-08
 0.1000000E-08  0.1000000E-08  0.2000000E-08   0.000000
 0.8000000E-08  0.5000000E-08  0.1000000E-08  0.1000000E-08  0.1000000E-08  0.1000000E-08
 0.1000000E-08  0.1000000E-08  0.1000000E-08  0.1000000E-08
 0.8000000E-08  0.5000000E-08  0.5000000E-08  0.2000000E-08  0.2000000E-08  0.1000000E-08
 0.1000000E-08  0.1000000E-08  0.1000000E-08  0.5000000E-08
 0.8000000E-08  0.5000000E-08  0.5000000E-08  0.2000000E-08  0.2000000E-08  0.1000000E-08
 0.1000000E-08  0.2000000E-08  0.2000000E-08   0.000000
  0.000000      0.5000000E-08  0.5000000E-08  0.2000000E-08  0.2000000E-08  0.1000000E-08
 0.1000000E-08  0.2000000E-08  0.5000000E-08   0.000000
  0.000000      0.5000000E-08  0.5000000E-08  0.2000000E-08  0.2000000E-08  0.1000000E-08
 0.1000000E-08  0.2000000E-08  0.5000000E-08   0.000000
  0.000000      0.5000000E-08  0.5000000E-08  0.2000000E-08  0.2000000E-08  0.1000000E-08
  0.000000       0.000000      0.5000000E-08  0.8000000E-08
  0.000000      0.1000000E-08   0.000000       0.000000       0.000000      0.1000000E-08
  0.000000       0.000000      0.5000000E-08   0.000000
 0.1000000E-08  0.1000000E-08   0.000000       0.000000       0.000000      0.1000000E-08
 0.1000000E-08  0.1000000E-08  0.2000000E-08   0.000000
 0.1000000E-08  0.1000000E-08   0.000000       0.000000       0.000000      0.2000000E-08
 0.2000000E-08  0.1000000E-08  0.1000000E-08   0.000000
  0.000000      0.2000000E-08   0.000000       0.000000       0.000000      0.5000000E-08
 0.5000000E-08  0.2000000E-08  0.1000000E-08   0.000000
  0.000000       0.000000      0.8000000E-08  0.8000000E-08  0.8000000E-08  0.8000000E-08
  0.000000       0.000000       0.000000       0.000000
END PERIOD

BEGIN PERIOD 2
  RECHARGE
    INTERNAL  FACTOR  1.0  IPRN  12
 0.8000000E-08  0.1600000E-07   0.000000       0.000000       0.000000       0.000000
  0.000000       0.000000       0.000000       0.000000
 0.1600000E-07  0.8000000E-08  0.1600000E-07   0.000000       0.000000      0.6400000E-07
 0.6400000E-07  0.4000000E-07   0.000000       0.000000
  0.000000      0.4000000E-07  0.8000000E-08  0.8000000E-08  0.6400000E-07  0.6400000E-07
 0.4000000E-07  0.4000000E-07   0.000000       0.000000
 0.6400000E-07  0.4000000E-07  0.8000000E-08  0.8000000E-08  0.8000000E-08  0.8000000E-08
 0.8000000E-08  0.8000000E-08  0.1600000E-07   0.000000
 0.6400000E-07  0.4000000E-07  0.8000000E-08  0.8000000E-08  0.8000000E-08  0.8000000E-08
 0.8000000E-08  0.8000000E-08  0.8000000E-08  0.8000000E-08
 0.6400000E-07  0.4000000E-07  0.4000000E-07  0.1600000E-07  0.1600000E-07  0.8000000E-08
 0.8000000E-08  0.8000000E-08  0.8000000E-08  0.4000000E-07
 0.6400000E-07  0.4000000E-07  0.4000000E-07  0.1600000E-07  0.1600000E-07  0.8000000E-08
 0.8000000E-08  0.1600000E-07  0.1600000E-07   0.000000
  0.000000      0.4000000E-07  0.4000000E-07  0.1600000E-07  0.1600000E-07  0.8000000E-08
 0.8000000E-08  0.1600000E-07  0.4000000E-07   0.000000
  0.000000      0.4000000E-07  0.4000000E-07  0.1600000E-07  0.1600000E-07  0.8000000E-08
 0.8000000E-08  0.1600000E-07  0.4000000E-07   0.000000
  0.000000      0.4000000E-07  0.4000000E-07  0.1600000E-07  0.1600000E-07  0.8000000E-08
  0.000000       0.000000      0.4000000E-07  0.6400000E-07
  0.000000      0.8000000E-08   0.000000       0.000000       0.000000      0.8000000E-08
  0.000000       0.000000      0.4000000E-07   0.000000
 0.8000000E-08  0.8000000E-08   0.000000       0.000000       0.000000      0.8000000E-08
 0.8000000E-08  0.8000000E-08  0.1600000E-07   0.000000
 0.8000000E-08  0.8000000E-08   0.000000       0.000000       0.000000      0.1600000E-07
 0.1600000E-07  0.8000000E-08  0.8000000E-08   0.000000
  0.000000      0.1600000E-07   0.000000       0.000000       0.000000      0.4000000E-07
 0.4000000E-07  0.1600000E-07  0.8000000E-08   0.000000
  0.000000       0.000000      0.6400000E-07  0.6400000E-07  0.6400000E-07  0.6400000E-07
  0.000000       0.000000       0.000000       0.000000
END PERIOD

BEGIN PERIOD 3
  RECHARGE
    INTERNAL  FACTOR  1.0  IPRN  12
 0.1000000E-07  0.2000000E-07   0.000000       0.000000       0.000000       0.000000
  0.000000       0.000000       0.000000       0.000000
 0.2000000E-07  0.1000000E-07  0.2000000E-07   0.000000       0.000000      0.8000000E-07
 0.8000000E-07  0.5000000E-07   0.000000       0.000000
  0.000000      0.5000000E-07  0.1000000E-07  0.1000000E-07  0.8000000E-07  0.8000000E-07
 0.5000000E-07  0.5000000E-07   0.000000       0.000000
 0.8000000E-07  0.5000000E-07  0.1000000E-07  0.1000000E-07  0.1000000E-07  0.1000000E-07
 0.1000000E-07  0.1000000E-07  0.2000000E-07   0.000000
 0.8000000E-07  0.5000000E-07  0.1000000E-07  0.1000000E-07  0.1000000E-07  0.1000000E-07
 0.1000000E-07  0.1000000E-07  0.1000000E-07  0.1000000E-07
 0.8000000E-07  0.5000000E-07  0.5000000E-07  0.2000000E-07  0.2000000E-07  0.1000000E-07
 0.1000000E-07  0.1000000E-07  0.1000000E-07  0.5000000E-07
 0.8000000E-07  0.5000000E-07  0.5000000E-07  0.2000000E-07  0.2000000E-07  0.1000000E-07
 0.1000000E-07  0.2000000E-07  0.2000000E-07   0.000000
  0.000000      0.5000000E-07  0.5000000E-07  0.2000000E-07  0.2000000E-07  0.1000000E-07
 0.1000000E-07  0.2000000E-07  0.5000000E-07   0.000000
  0.000000      0.5000000E-07  0.5000000E-07  0.2000000E-07  0.2000000E-07  0.1000000E-07
 0.1000000E-07  0.2000000E-07  0.5000000E-07   0.000000
  0.000000      0.5000000E-07  0.5000000E-07  0.2000000E-07  0.2000000E-07  0.1000000E-07
  0.000000       0.000000      0.5000000E-07  0.8000000E-07
  0.000000      0.1000000E-07   0.000000       0.000000       0.000000      0.1000000E-07
  0.000000       0.000000      0.5000000E-07   0.000000
 0.1000000E-07  0.1000000E-07   0.000000       0.000000       0.000000      0.1000000E-07
 0.1000000E-07  0.1000000E-07  0.2000000E-07   0.000000
 0.1000000E-07  0.1000000E-07   0.000000       0.000000       0.000000      0.2000000E-07
 0.2000000E-07  0.1000000E-07  0.1000000E-07   0.000000
  0.000000      0.2000000E-07   0.000000       0.000000       0.000000      0.5000000E-07
 0.5000000E-07  0.2000000E-07  0.1000000E-07   0.000000
  0.000000       0.000000      0.8000000E-07  0.8000000E-07  0.8000000E-07  0.8000000E-07
  0.000000       0.000000       0.000000       0.000000
END PERIOD

BEGIN PERIOD 4
  RECHARGE
    INTERNAL  FACTOR  1.0  IPRN  12
 0.4000000E-07  0.8000000E-07   0.000000       0.000000       0.000000       0.000000
  0.000000       0.000000       0.000000       0.000000
 0.8000000E-07  0.4000000E-07  0.8000000E-07   0.000000       0.000000      0.3200000E-06
 0.3200000E-06  0.2000000E-06   0.000000       0.000000
  0.000000      0.2000000E-06  0.4000000E-07  0.4000000E-07  0.3200000E-06  0.3200000E-06
 0.2000000E-06  0.2000000E-06   0.000000       0.000000
 0.3200000E-06  0.2000000E-06  0.4000000E-07  0.4000000E-07  0.4000000E-07  0.4000000E-07
 0.4000000E-07  0.4000000E-07  0.8000000E-07   0.000000
 0.3200000E-06  0.2000000E-06  0.4000000E-07  0.4000000E-07  0.4000000E-07  0.4000000E-07
 0.4000000E-07  0.4000000E-07  0.4000000E-07  0.4000000E-07
 0.3200000E-06  0.2000000E-06  0.2000000E-06  0.8000000E-07  0.8000000E-07  0.4000000E-07
 0.4000000E-07  0.4000000E-07  0.4000000E-07  0.2000000E-06
 0.3200000E-06  0.2000000E-06  0.2000000E-06  0.8000000E-07  0.8000000E-07  0.4000000E-07
 0.4000000E-07  0.8000000E-07  0.8000000E-07   0.000000
  0.000000      0.2000000E-06  0.2000000E-06  0.8000000E-07  0.8000000E-07  0.4000000E-07
 0.4000000E-07  0.8000000E-07  0.2000000E-06   0.000000
  0.000000      0.2000000E-06  0.2000000E-06  0.8000000E-07  0.8000000E-07  0.4000000E-07
 0.4000000E-07  0.8000000E-07  0.2000000E-06   0.000000
  0.000000      0.2000000E-06  0.2000000E-06  0.8000000E-07  0.8000000E-07  0.4000000E-07
  0.000000       0.000000      0.2000000E-06  0.3200000E-06
  0.000000      0.4000000E-07   0.000000       0.000000       0.000000      0.4000000E-07
  0.000000       0.000000      0.2000000E-06   0.000000
 0.4000000E-07  0.4000000E-07   0.000000       0.000000       0.000000      0.4000000E-07
 0.4000000E-07  0.4000000E-07  0.8000000E-07   0.000000
 0.4000000E-07  0.4000000E-07   0.000000       0.000000       0.000000      0.8000000E-07
 0.8000000E-07  0.4000000E-07  0.4000000E-07   0.000000
  0.000000      0.8000000E-07   0.000000       0.000000       0.000000      0.2000000E-06
 0.2000000E-06  0.8000000E-07  0.4000000E-07   0.000000
  0.000000       0.000000      0.3200000E-06  0.3200000E-06  0.3200000E-06  0.3200000E-06
  0.000000       0.000000       0.000000       0.000000
END PERIOD

BEGIN PERIOD 5
  RECHARGE
    INTERNAL  FACTOR  1.0  IPRN  12
 0.5000000E-07  0.1000000E-06   0.000000       0.000000       0.000000       0.000000
  0.000000       0.000000       0.000000       0.000000
 0.1000000E-06  0.5000000E-07  0.1000000E-06   0.000000       0.000000      0.4000000E-06
 0.4000000E-06  0.2500000E-06   0.000000       0.000000
  0.000000      0.2500000E-06  0.5000000E-07  0.5000000E-07  0.4000000E-06  0.4000000E-06
 0.2500000E-06  0.2500000E-06   0.000000       0.000000
 0.4000000E-06  0.2500000E-06  0.5000000E-07  0.5000000E-07  0.5000000E-07  0.5000000E-07
 0.5000000E-07  0.5000000E-07  0.1000000E-06   0.000000
 0.4000000E-06  0.2500000E-06  0.5000000E-07  0.5000000E-07  0.5000000E-07  0.5000000E-07
 0.5000000E-07  0.5000000E-07  0.5000000E-07  0.5000000E-07
 0.4000000E-06  0.2500000E-06  0.2500000E-06  0.1000000E-06  0.1000000E-06  0.5000000E-07
 0.5000000E-07  0.5000000E-07  0.5000000E-07  0.2500000E-06
 0.4000000E-06  0.2500000E-06  0.2500000E-06  0.1000000E-06  0.1000000E-06  0.5000000E-07
 0.5000000E-07  0.1000000E-06  0.1000000E-06   0.000000
  0.000000      0.2500000E-06  0.2500000E-06  0.1000000E-06  0.1000000E-06  0.5000000E-07
 0.5000000E-07  0.1000000E-06  0.2500000E-06   0.000000
  0.000000      0.2500000E-06  0.2500000E-06  0.1000000E-06  0.1000000E-06  0.5000000E-07
 0.5000000E-07  0.1000000E-06  0.2500000E-06   0.000000
  0.000000      0.2500000E-06  0.2500000E-06  0.1000000E-06  0.1000000E-06  0.5000000E-07
  0.000000       0.000000      0.2500000E-06  0.4000000E-06
  0.000000      0.5000000E-07   0.000000       0.000000       0.000000      0.5000000E-07
  0.000000       0.000000      0.2500000E-06   0.000000
 0.5000000E-07  0.5000000E-07   0.000000       0.000000       0.000000      0.5000000E-07
 0.5000000E-07  0.5000000E-07  0.1000000E-06   0.000000
 0.5000000E-07  0.5000000E-07   0.000000       0.000000       0.000000      0.1000000E-06
 0.1000000E-06  0.5000000E-07  0.5000000E-07   0.000000
  0.000000      0.1000000E-06   0.000000       0.000000       0.000000      0.2500000E-06
 0.2500000E-06  0.1000000E-06  0.5000000E-07   0.000000
  0.000000       0.000000      0.4000000E-06  0.4000000E-06  0.4000000E-06  0.4000000E-06
  0.000000       0.000000       0.000000       0.000000
END PERIOD

BEGIN PERIOD 6
  RECHARGE
    INTERNAL  FACTOR  1.0  IPRN  12
 0.8000000E-07  0.1600000E-06   0.000000       0.000000       0.000000       0.000000
  0.000000       0.000000       0.000000       0.000000
 0.1600000E-06  0.8000000E-07  0.1600000E-06   0.000000       0.000000      0.6400000E-06
 0.6400000E-06  0.4000000E-06   0.000000       0.000000
  0.000000      0.4000000E-06  0.8000000E-07  0.8000000E-07  0.6400000E-06  0.6400000E-06
 0.4000000E-06  0.4000000E-06   0.000000       0.000000
 0.6400000E-06  0.4000000E-06  0.8000000E-07  0.8000000E-07  0.8000000E-07  0.8000000E-07
 0.8000000E-07  0.8000000E-07  0.1600000E-06   0.000000
 0.6400000E-06  0.4000000E-06  0.8000000E-07  0.8000000E-07  0.8000000E-07  0.8000000E-07
 0.8000000E-07  0.8000000E-07  0.8000000E-07  0.8000000E-07
 0.6400000E-06  0.4000000E-06  0.4000000E-06  0.1600000E-06  0.1600000E-06  0.8000000E-07
 0.8000000E-07  0.8000000E-07  0.8000000E-07  0.4000000E-06
 0.6400000E-06  0.4000000E-06  0.4000000E-06  0.1600000E-06  0.1600000E-06  0.8000000E-07
 0.8000000E-07  0.1600000E-06  0.1600000E-06   0.000000
  0.000000      0.4000000E-06  0.4000000E-06  0.1600000E-06  0.1600000E-06  0.8000000E-07
 0.8000000E-07  0.1600000E-06  0.4000000E-06   0.000000
  0.000000      0.4000000E-06  0.4000000E-06  0.1600000E-06  0.1600000E-06  0.8000000E-07
 0.8000000E-07  0.1600000E-06  0.4000000E-06   0.000000
  0.000000      0.4000000E-06  0.4000000E-06  0.1600000E-06  0.1600000E-06  0.8000000E-07
  0.000000       0.000000      0.4000000E-06  0.6400000E-06
  0.000000      0.8000000E-07   0.000000       0.000000       0.000000      0.8000000E-07
  0.000000       0.000000      0.4000000E-06   0.000000
 0.8000000E-07  0.8000000E-07   0.000000       0.000000       0.000000      0.8000000E-07
 0.8000000E-07  0.8000000E-07  0.1600000E-06   0.000000
 0.8000000E-07  0.8000000E-07   0.000000       0.000000       0.000000      0.1600000E-06
 0.1600000E-06  0.8000000E-07  0.8000000E-07   0.000000
  0.000000      0.1600000E-06   0.000000       0.000000       0.000000      0.4000000E-06
 0.4000000E-06  0.1600000E-06  0.8000000E-07   0.000000
  0.000000       0.000000      0.6400000E-06  0.6400000E-06  0.6400000E-06  0.6400000E-06
  0.000000       0.000000       0.000000       0.000000
END PERIOD

BEGIN PERIOD 7
  RECHARGE
    INTERNAL  FACTOR  1.0  IPRN  12
 0.3000000E-08  0.6000000E-08   0.000000       0.000000       0.000000       0.000000
  0.000000       0.000000       0.000000       0.000000
 0.6000000E-08  0.3000000E-08  0.6000000E-08   0.000000       0.000000      0.2400000E-07
 0.2400000E-07  0.1500000E-07   0.000000       0.000000
  0.000000      0.1500000E-07  0.3000000E-08  0.3000000E-08  0.2400000E-07  0.2400000E-07
 0.1500000E-07  0.1500000E-07   0.000000       0.000000
 0.2400000E-07  0.1500000E-07  0.3000000E-08  0.3000000E-08  0.3000000E-08  0.3000000E-08
 0.3000000E-08  0.3000000E-08  0.6000000E-08   0.000000
 0.2400000E-07  0.1500000E-07  0.3000000E-08  0.3000000E-08  0.3000000E-08  0.3000000E-08
 0.3000000E-08  0.3000000E-08  0.3000000E-08  0.3000000E-08
 0.2400000E-07  0.1500000E-07  0.1500000E-07  0.6000000E-08  0.6000000E-08  0.3000000E-08
 0.3000000E-08  0.3000000E-08  0.3000000E-08  0.1500000E-07
 0.2400000E-07  0.1500000E-07  0.1500000E-07  0.6000000E-08  0.6000000E-08  0.3000000E-08
 0.3000000E-08  0.6000000E-08  0.6000000E-08   0.000000
  0.000000      0.1500000E-07  0.1500000E-07  0.6000000E-08  0.6000000E-08  0.3000000E-08
 0.3000000E-08  0.6000000E-08  0.1500000E-07   0.000000
  0.000000      0.1500000E-07  0.1500000E-07  0.6000000E-08  0.6000000E-08  0.3000000E-08
 0.3000000E-08  0.6000000E-08  0.1500000E-07   0.000000
  0.000000      0.1500000E-07  0.1500000E-07  0.6000000E-08  0.6000000E-08  0.3000000E-08
  0.000000       0.000000      0.1500000E-07  0.2400000E-07
  0.000000      0.3000000E-08   0.000000       0.000000       0.000000      0.3000000E-08
  0.000000       0.000000      0.1500000E-07   0.000000
 0.3000000E-08  0.3000000E-08   0.000000       0.000000       0.000000      0.3000000E-08
 0.3000000E-08  0.3000000E-08  0.6000000E-08   0.000000
 0.3000000E-08  0.3000000E-08   0.000000       0.000000       0.000000      0.6000000E-08
 0.6000000E-08  0.3000000E-08  0.3000000E-08   0.000000
  0.000000      0.6000000E-08   0.000000       0.000000       0.000000      0.1500000E-07
 0.1500000E-07  0.6000000E-08  0.3000000E-08   0.000000
  0.000000       0.000000      0.2400000E-07  0.2400000E-07  0.2400000E-07  0.2400000E-07
  0.000000       0.000000       0.000000       0.000000
END PERIOD

BEGIN PERIOD 8
  RECHARGE
    INTERNAL  FACTOR  1.0  IPRN  12
 0.5000000E-08  0.1000000E-07   0.000000       0.000000       0.000000       0.000000
  0.000000       0.000000       0.000000       0.000000
 0.1000000E-07  0.5000000E-08  0.1000000E-07   0.000000       0.000000      0.4000000E-07
 0.4000000E-07  0.2500000E-07   0.000000       0.000000
  0.000000      0.2500000E-07  0.5000000E-08  0.5000000E-08  0.4000000E-07  0.4000000E-07
 0.2500000E-07  0.2500000E-07   0.000000       0.000000
 0.4000000E-07  0.2500000E-07  0.5000000E-08  0.5000000E-08  0.5000000E-08  0.5000000E-08
 0.5000000E-08  0.5000000E-08  0.1000000E-07   0.000000
 0.4000000E-07  0.2500000E-07  0.5000000E-08  0.5000000E-08  0.5000000E-08  0.5000000E-08
 0.5000000E-08  0.5000000E-08  0.5000000E-08  0.5000000E-08
 0.4000000E-07  0.2500000E-07  0.2500000E-07  0.1000000E-07  0.1000000E-07  0.5000000E-08
 0.5000000E-08  0.5000000E-08  0.5000000E-08  0.2500000E-07
 0.4000000E-07  0.2500000E-07  0.2500000E-07  0.1000000E-07  0.1000000E-07  0.5000000E-08
 0.5000000E-08  0.1000000E-07  0.1000000E-07   0.000000
  0.000000      0.2500000E-07  0.2500000E-07  0.1000000E-07  0.1000000E-07  0.5000000E-08
 0.5000000E-08  0.1000000E-07  0.2500000E-07   0.000000
  0.000000      0.2500000E-07  0.2500000E-07  0.1000000E-07  0.1000000E-07  0.5000000E-08
 0.5000000E-08  0.1000000E-07  0.2500000E-07   0.000000
  0.000000      0.2500000E-07  0.2500000E-07  0.1000000E-07  0.1000000E-07  0.5000000E-08
  0.000000       0.000000      0.2500000E-07  0.4000000E-07
  0.000000      0.5000000E-08   0.000000       0.000000       0.000000      0.5000000E-08
  0.000000       0.000000      0.2500000E-07   0.000000
 0.5000000E-08  0.5000000E-08   0.000000       0.000000       0.000000      0.5000000E-08
 0.5000000E-08  0.5000000E-08  0.1000000E-07   0.000000
 0.5000000E-08  0.5000000E-08   0.000000       0.000000       0.000000      0.1000000E-07
 0.1000000E-07  0.5000000E-08  0.5000000E-08   0.000000
  0.000000      0.1000000E-07   0.000000       0.000000       0.000000      0.2500000E-07
 0.2500000E-07  0.1000000E-07  0.5000000E-08   0.000000
  0.000000       0.000000      0.4000000E-07  0.4000000E-07  0.4000000E-07  0.4000000E-07
  0.000000       0.000000       0.000000       0.000000
END PERIOD

BEGIN PERIOD 9
  RECHARGE
    INTERNAL  FACTOR  1.0  IPRN  12
 0.3000000E-08  0.6000000E-08   0.000000       0.000000       0.000000       0.000000
  0.000000       0.000000       0.000000       0.000000
 0.6000000E-08  0.3000000E-08  0.6000000E-08   0.000000       0.000000      0.2400000E-07
 0.2400000E-07  0.1500000E-07   0.000000       0.000000
  0.000000      0.1500000E-07  0.3000000E-08  0.3000000E-08  0.2400000E-07  0.2400000E-07
 0.1500000E-07  0.1500000E-07   0.000000       0.000000
 0.2400000E-07  0.1500000E-07  0.3000000E-08  0.3000000E-08  0.3000000E-08  0.3000000E-08
 0.3000000E-08  0.3000000E-08  0.6000000E-08   0.000000
 0.2400000E-07  0.1500000E-07  0.3000000E-08  0.3000000E-08  0.3000000E-08  0.3000000E-08
 0.3000000E-08  0.3000000E-08  0.3000000E-08  0.3000000E-08
 0.2400000E-07  0.1500000E-07  0.1500000E-07  0.6000000E-08  0.6000000E-08  0.3000000E-08
 0.3000000E-08  0.3000000E-08  0.3000000E-08  0.1500000E-07
 0.2400000E-07  0.1500000E-07  0.1500000E-07  0.6000000E-08  0.6000000E-08  0.3000000E-08
 0.3000000E-08  0.6000000E-08  0.6000000E-08   0.000000
  0.000000      0.1500000E-07  0.1500000E-07  0.6000000E-08  0.6000000E-08  0.3000000E-08
 0.3000000E-08  0.6000000E-08  0.1500000E-07   0.000000
  0.000000      0.1500000E-07  0.1500000E-07  0.6000000E-08  0.6000000E-08  0.3000000E-08
 0.3000000E-08  0.6000000E-08  0.1500000E-07   0.000000
  0.000000      0.1500000E-07  0.1500000E-07  0.6000000E-08  0.6000000E-08  0.3000000E-08
  0.000000       0.000000      0.1500000E-07  0.2400000E-07
  0.000000      0.3000000E-08   0.000000       0.000000       0.000000      0.3000000E-08
  0.000000       0.000000      0.1500000E-07   0.000000
 0.3000000E-08  0.3000000E-08   0.000000       0.000000       0.000000      0.3000000E-08
 0.3000000E-08  0.3000000E-08  0.6000000E-08   0.000000
 0.3000000E-08  0.3000000E-08   0.000000       0.000000       0.000000      0.6000000E-08
 0.6000000E-08  0.3000000E-08  0.3000000E-08   0.000000
  0.000000      0.6000000E-08   0.000000       0.000000       0.000000      0.1500000E-07
 0.1500000E-07  0.6000000E-08  0.3000000E-08   0.000000
  0.000000       0.000000      0.2400000E-07  0.2400000E-07  0.2400000E-07  0.2400000E-07
  0.000000       0.000000       0.000000       0.000000
END PERIOD

BEGIN PERIOD 10
  RECHARGE
    INTERNAL  FACTOR  1.0  IPRN  12
 0.2000000E-08  0.4000000E-08   0.000000       0.000000       0.000000       0.000000
  0.000000       0.000000       0.000000       0.000000
 0.4000000E-08  0.2000000E-08  0.4000000E-08   0.000000       0.000000      0.1600000E-07
 0.1600000E-07  0.1000000E-07   0.000000       0.000000
  0.000000      0.1000000E-07  0.2000000E-08  0.2000000E-08  0.1600000E-07  0.1600000E-07
 0.1000000E-07  0.1000000E-07   0.000000       0.000000
 0.1600000E-07  0.1000000E-07  0.2000000E-08  0.2000000E-08  0.2000000E-08  0.2000000E-08
 0.2000000E-08  0.2000000E-08  0.4000000E-08   0.000000
 0.1600000E-07  0.1000000E-07  0.2000000E-08  0.2000000E-08  0.2000000E-08  0.2000000E-08
 0.2000000E-08  0.2000000E-08  0.2000000E-08  0.2000000E-08
 0.1600000E-07  0.1000000E-07  0.1000000E-07  0.4000000E-08  0.4000000E-08  0.2000000E-08
 0.2000000E-08  0.2000000E-08  0.2000000E-08  0.1000000E-07
 0.1600000E-07  0.1000000E-07  0.1000000E-07  0.4000000E-08  0.4000000E-08  0.2000000E-08
 0.2000000E-08  0.4000000E-08  0.4000000E-08   0.000000
  0.000000      0.1000000E-07  0.1000000E-07  0.4000000E-08  0.4000000E-08  0.2000000E-08
 0.2000000E-08  0.4000000E-08  0.1000000E-07   0.000000
  0.000000      0.1000000E-07  0.1000000E-07  0.4000000E-08  0.4000000E-08  0.2000000E-08
 0.2000000E-08  0.4000000E-08  0.1000000E-07   0.000000
  0.000000      0.1000000E-07  0.1000000E-07  0.4000000E-08  0.4000000E-08  0.2000000E-08
  0.000000       0.000000      0.1000000E-07  0.1600000E-07
  0.000000      0.2000000E-08   0.000000       0.000000       0.000000      0.2000000E-08
  0.000000       0.000000      0.1000000E-07   0.000000
 0.2000000E-08  0.2000000E-08   0.000000       0.000000       0.000000      0.2000000E-08
 0.2000000E-08  0.2000000E-08  0.4000000E-08   0.000000
 0.2000000E-08  0.2000000E-08   0.000000       0.000000       0.000000      0.4000000E-08
 0.4000000E-08  0.2000000E-08  0.2000000E-08   0.000000
  0.000000      0.4000000E-08   0.000000       0.000000       0.000000      0.1000000E-07
 0.1000000E-07  0.4000000E-08  0.2000000E-08   0.000000
  0.000000       0.000000      0.1600000E-07  0.1600000E-07  0.1600000E-07  0.1600000E-07
  0.000000       0.000000       0.000000       0.000000
END PERIOD

BEGIN PERIOD 11
  RECHARGE
    INTERNAL  FACTOR  1.0  IPRN  12
 0.1000000E-08  0.2000000E-08   0.000000       0.000000       0.000000       0.000000
  0.000000       0.000000       0.000000       0.000000
 0.2000000E-08  0.1000000E-08  0.2000000E-08   0.000000       0.000000      0.8000000E-08
 0.8000000E-08  0.5000000E-08   0.000000       0.000000
  0.000000      0.5000000E-08  0.1000000E-08  0.1000000E-08  0.8000000E-08  0.8000000E-08
 0.5000000E-08  0.5000000E-08   0.000000       0.000000
 0.8000000E-08  0.5000000E-08  0.1000000E-08  0.1000000E-08  0.1000000E-08  0.1000000E-08
 0.1000000E-08  0.1000000E-08  0.2000000E-08   0.000000
 0.8000000E-08  0.5000000E-08  0.1000000E-08  0.1000000E-08  0.1000000E-08  0.1000000E-08
 0.1000000E-08  0.1000000E-08  0.1000000E-08  0.1000000E-08
 0.8000000E-08  0.5000000E-08  0.5000000E-08  0.2000000E-08  0.2000000E-08  0.1000000E-08
 0.1000000E-08  0.1000000E-08  0.1000000E-08  0.5000000E-08
 0.8000000E-08  0.5000000E-08  0.5000000E-08  0.2000000E-08  0.2000000E-08  0.1000000E-08
 0.1000000E-08  0.2000000E-08  0.2000000E-08   0.000000
  0.000000      0.5000000E-08  0.5000000E-08  0.2000000E-08  0.2000000E-08  0.1000000E-08
 0.1000000E-08  0.2000000E-08  0.5000000E-08   0.000000
  0.000000      0.5000000E-08  0.5000000E-08  0.2000000E-08  0.2000000E-08  0.1000000E-08
 0.1000000E-08  0.2000000E-08  0.5000000E-08   0.000000
  0.000000      0.5000000E-08  0.5000000E-08  0.2000000E-08  0.2000000E-08  0.1000000E-08
  0.000000       0.000000      0.5000000E-08  0.8000000E-08
  0.000000      0.1000000E-08   0.000000       0.000000       0.000000      0.1000000E-08
  0.000000       0.000000      0.5000000E-08   0.000000
 0.1000000E-08  0.1000000E-08   0.000000       0.000000       0.000000      0.1000000E-08
 0.1000000E-08  0.1000000E-08  0.2000000E-08   0.000000
 0.1000000E-08  0.1000000E-08   0.000000       0.000000       0.000000      0.2000000E-08
 0.2000000E-08  0.1000000E-08  0.1000000E-08   0.000000
  0.000000      0.2000000E-08   0.000000       0.000000       0.000000      0.5000000E-08
 0.5000000E-08  0.2000000E-08  0.1000000E-08   0.000000
  0.000000       0.000000      0.8000000E-08  0.8000000E-08  0.8000000E-08  0.8000000E-08
  0.000000       0.000000       0.000000       0.000000
END PERIOD
