# OC8 input file, prepared by MF5to6 on 7/29/2016 at 12:57:25.

BEGIN Options
  HEAD FILEOUT  uzfp3_lakmvr_nouzf.hds
  HEAD PRINT_FORMAT  COLUMNS 10  WIDTH 11  DIGITS 4  GENERAL
END Options

BEGIN PERIOD 1
  PRINT BUDGET ALL
  SAVE HEAD ALL
  PRINT HEAD ALL
END PERIOD

BEGIN PERIOD 2
  PRINT BUDGET LAST
  PRINT HEAD LAST
  SAVE HEAD LAST
END PERIOD
