# MVR6 input file, prepared by MF5to6 on 7/29/2016 at 12:57:26.

BEGIN Options
  PRINT_INPUT
  PRINT_FLOWS
END Options

BEGIN Dimensions
  MAXMVR  4
  MAXPACKAGES  2
END Dimensions

BEGIN Packages
  SFR_1
  LAK_1
END Packages

BEGIN Period 1
  SFR_1  23  LAK_1  1  FACTOR  1.000000000000000
  LAK_1  1  SFR_1  24  FACTOR  1.000000000000000
  SFR_1  29  LAK_1  2  FACTOR  1.000000000000000
  LAK_1  2  SFR_1  30  FACTOR  1.000000000000000
END Period
