BEGIN OPTIONS
  READASARRAYS
  FIXED_CELL
  AUXILIARY MYEVTMULT
#  AUXMULTNAME MYEVTMULT
END OPTIONS

BEGIN PERIOD 1
  SURFACE
    CONSTANT 10.
  RATE
    CONSTANT 0.01
  DEPTH
    CONSTANT 5.
  MYEVTMULT
    CONSTANT 2.0
END PERIOD
