# LPF for MODFLOW-NWT, generated by Flopy.
         0    -1.e30         0         CONSTANTCV 
         0
         0
         1
         0
         0
CONSTANT    1.000000E+01                           #hk Layer 1                    
CONSTANT    1.000000E+01                           #vka Layer 1                   
CONSTANT    1.000000E-05                           #ss Layer 1                    
