begin options
  PRINT_INPUT
  PRINT_FLOWS
  SAVE_FLOWS
end options

begin dimensions
  MAXBOUND 45
end dimensions

begin period 1
 1 1  15 44.75
 1 2  15 44.75
 1 3  15 44.75
 1 4  15 44.75
 1 5  15 44.75
 1 6  15 44.75
 1 7  15 44.75
 1 8  15 44.75
 1 9  15 44.75
 1 10 15 44.75
 1 11 15 44.75
 1 12 15 44.75
 1 13 15 44.75
 1 14 15 44.75
 1 15 15 44.75
 2 1  15 44.75
 2 2  15 44.75
 2 3  15 44.75
 2 4  15 44.75
 2 5  15 44.75
 2 6  15 44.75
 2 7  15 44.75
 2 8  15 44.75
 2 9  15 44.75
 2 10 15 44.75
 2 11 15 44.75
 2 12 15 44.75
 2 13 15 44.75
 2 14 15 44.75
 2 15 15 44.75
 3 1  15 44.75
 3 2  15 44.75
 3 3  15 44.75
 3 4  15 44.75
 3 5  15 44.75
 3 6  15 44.75
 3 7  15 44.75
 3 8  15 44.75
 3 9  15 44.75
 3 10 15 44.75
 3 11 15 44.75
 3 12 15 44.75
 3 13 15 44.75
 3 14 15 44.75
 3 15 15 44.75
end period
