begin options
  PRINT_OPTION SUMMARY
end options

begin nonlinear
	outer_hclose 1.e-4
	outer_maximum 25 
	under_relaxation none
end nonlinear


begin linear
	inner_hclose 1.0e-4
	inner_rclose 1.0e-4
	inner_maximum 500
	LINEAR_ACCELERATION bicgstab
	scaling_method none
	REORDERING_METHOD none
	relaxation_factor 0.97
end linear
