BEGIN OPTIONS
  HEAD FILEOUT ex3_parent.hds
  BUDGET FILEOUT ex3_parent.cbb
END OPTIONS

BEGIN PERIOD 1
  PRINT BUDGET ALL
  SAVE BUDGET ALL
  PRINT HEAD ALL
  SAVE HEAD ALL
END PERIOD
