# SFR8 input file, prepared by MF5to6 on 3/15/2016 at 17:41:38.

BEGIN Options
  MAXIMUM_DEPTH_CHANGE   0.10000000E-03
  PRINT_STAGE
  PRINT_FLOWS   
  MOVER
END Options

BEGIN Dimensions
  NREACHES  18
END Dimensions

BEGIN PACKAGEDATA
  # rno cellid rlen           rwid            rgrd            rbtp            rbth            rbhk             man     ncon  ustrf ndv
  1 1 1 2   65.613029       5.0000000      0.12869035E-02   49.409676       1.5000000      0.99999998E-02  0.39999999E-01 1 1.0000 0
  2 1 2 2   72.488609       5.0000000      0.12869035E-02   49.320812       1.5000000      0.99999998E-02  0.39999999E-01 2 1.0000 0
  3 1 3 2   81.424789       5.0000000      0.12869035E-02   49.221775       1.5000000      0.99999998E-02  0.39999999E-01 2 1.0000 0
  4 1 3 3   35.850410       5.0000000      0.12869035E-02   49.146317       1.5000000      0.99999998E-02  0.39999999E-01 2 1.0000 0
  5 1 4 3   75.027390       5.0000000      0.12869035E-02   49.074970       1.5000000      0.99999998E-02  0.39999999E-01 2 1.0000 0
  6 1 5 3   90.887520       5.0000000      0.12869035E-02   48.968212       1.5000000      0.99999998E-02  0.39999999E-01 2 1.0000 0
  7 1 5 4   77.565651       5.0000000      0.12869035E-02   48.859821       1.5000000      0.99999998E-02  0.39999999E-01 2 1.0000 0
  8 1 6 4   74.860397       5.0000000      0.12869035E-02   48.761742       1.5000000      0.99999998E-02  0.39999999E-01 1 1.0000 0

#  9 1 7 4   56.604286       5.0000000      0.13988185E-02   48.577591       1.5000000      0.99999998E-02  0.39999999E-01 2 1.0000 0
#  10 1 7 3   61.071815       5.0000000      0.13988185E-02   48.495285       1.5000000      0.99999998E-02  0.39999999E-01 2 1.0000 0
#  11 1 8 3   72.018143       5.0000000      0.13988185E-02   48.402203       1.5000000      0.99999998E-02  0.39999999E-01 2 1.0000 0
#  12 1 9 3   84.037514       5.0000000      0.13988185E-02   48.293056       1.5000000      0.99999998E-02  0.39999999E-01 2 1.0000 0
#  13 1 9 4   69.725410       5.0000000      0.13988185E-02   48.185513       1.5000000      0.99999998E-02  0.39999999E-01 2 1.0000 0
#  14 1 8 4   107.49606       5.0000000      0.13988185E-02   48.061562       1.5000000      0.99999998E-02  0.39999999E-01 2 1.0000 0
#  15 1 8 5   118.34027       5.0000000      0.13988185E-02   47.903610       1.5000000      0.99999998E-02  0.39999999E-01 2 1.0000 0
#  16 1 9 5   106.31615       5.0000000      0.13988185E-02   47.746483       1.5000000      0.99999998E-02  0.39999999E-01 2 1.0000 0
#  17 1 9 4   58.970520       5.0000000      0.13988185E-02   47.630878       1.5000000      0.99999998E-02  0.39999999E-01 2 1.0000 0
#  18 1 10 4   78.229012       5.0000000      0.13988185E-02   47.534920       1.5000000      0.99999998E-02  0.39999999E-01 2 1.0000 0
#  19 1 11 4   119.60738       5.0000000      0.13988185E-02   47.396553       1.5000000      0.99999998E-02  0.39999999E-01 2 1.0000 0
#  20 1 11 5   76.940361       5.0000000      0.13988185E-02   47.259087       1.5000000      0.99999998E-02  0.39999999E-01 2 1.0000 0
#  21 1 10 5   77.807365       5.0000000      0.13988185E-02   47.150852       1.5000000      0.99999998E-02  0.39999999E-01 2 1.0000 0
#  22 1 9 5   26.219234       5.0000000      0.13988185E-02   47.078098       1.5000000      0.99999998E-02  0.39999999E-01 2 1.0000 0
#  23 1 9 6   45.778721       5.0000000      0.13988185E-02   47.027740       1.5000000      0.99999998E-02  0.39999999E-01 2 1.0000 0
#  24 1 8 6   70.136055       5.0000000      0.13988185E-02   46.946671       1.5000000      0.99999998E-02  0.39999999E-01 2 1.0000 0
#  25 1 7 6   101.78330       5.0000000      0.13988185E-02   46.826427       1.5000000      0.99999998E-02  0.39999999E-01 2 1.0000 0
#  26 1 7 7   94.653397       5.0000000      0.13988185E-02   46.689037       1.5000000      0.99999998E-02  0.39999999E-01 2 1.0000 0
#  27 1 8 7   74.320122       5.0000000      0.13988185E-02   46.570854       1.5000000      0.99999998E-02  0.39999999E-01 2 1.0000 0
#  28 1 9 7   79.364639       5.0000000      0.13988185E-02   46.463367       1.5000000      0.99999998E-02  0.39999999E-01 2 1.0000 0
#  29 1 10 7   71.139549       5.0000000      0.13988185E-02   46.358101       1.5000000      0.99999998E-02  0.39999999E-01 2 1.0000 0
#  30 1 11 7   106.17300       5.0000000      0.13988185E-02   46.234089       1.5000000      0.99999998E-02  0.39999999E-01 2 1.0000 0
#  31 1 11 8   39.794659       5.0000000      0.13988185E-02   46.131996       1.5000000      0.99999998E-02  0.39999999E-01 2 1.0000 0
#  32 1 10 8   81.773308       5.0000000      0.13988185E-02   46.046970       1.5000000      0.99999998E-02  0.39999999E-01 2 1.0000 0
#  33 1 9 8   128.43369       5.0000000      0.13988185E-02   45.899952       1.5000000      0.99999998E-02  0.39999999E-01 2 1.0000 0

  9 1 9 9   120.44695       5.0000000      0.12780087E-02   45.550678       1.5000000      0.99999998E-02  0.39999999E-01 1 1.0000 0
  10 1 9 10   112.31332       5.0000000      0.12780087E-02   45.401943       1.5000000      0.99999998E-02  0.39999999E-01 2 1.0000 0
  11 1 9 11   109.00368       5.0000000      0.12780087E-02   45.260521       1.5000000      0.99999998E-02  0.39999999E-01 2 1.0000 0
  12 1 9 12   91.234566       5.0000000      0.12780087E-02   45.132568       1.5000000      0.99999998E-02  0.39999999E-01 2 1.0000 0
  13 1 8 12   67.486000       5.0000000      0.12780087E-02   45.031143       1.5000000      0.99999998E-02  0.39999999E-01 2 1.0000 0
  14 1 8 13   24.603355       5.0000000      0.12780087E-02   44.972298       1.5000000      0.99999998E-02  0.39999999E-01 2 1.0000 0
  15 1 7 13   97.547943       5.0000000      0.12780087E-02   44.894241       1.5000000      0.99999998E-02  0.39999999E-01 2 1.0000 0
  16 1 7 14   104.97595       5.0000000      0.12780087E-02   44.764832       1.5000000      0.99999998E-02  0.39999999E-01 2 1.0000 0
  17 1 7 15   8.9454498       5.0000000      0.12780087E-02   44.692032       1.5000000      0.99999998E-02  0.39999999E-01 2 1.0000 0
  18 1 6 15   92.638367       5.0000000      0.12780087E-02   44.627121       1.5000000      0.99999998E-02  0.39999999E-01 1 1.0000 0


#  34 1 9 9   120.44695       5.0000000      0.12780087E-02   45.550678       1.5000000      0.99999998E-02  0.39999999E-01 2 1.0000 0
#  35 1 9 10   112.31332       5.0000000      0.12780087E-02   45.401943       1.5000000      0.99999998E-02  0.39999999E-01 2 1.0000 0
#  36 1 9 11   109.00368       5.0000000      0.12780087E-02   45.260521       1.5000000      0.99999998E-02  0.39999999E-01 2 1.0000 0
#  37 1 9 12   91.234566       5.0000000      0.12780087E-02   45.132568       1.5000000      0.99999998E-02  0.39999999E-01 2 1.0000 0
#  38 1 8 12   67.486000       5.0000000      0.12780087E-02   45.031143       1.5000000      0.99999998E-02  0.39999999E-01 2 1.0000 0
#  39 1 8 13   24.603355       5.0000000      0.12780087E-02   44.972298       1.5000000      0.99999998E-02  0.39999999E-01 2 1.0000 0
#  40 1 7 13   97.547943       5.0000000      0.12780087E-02   44.894241       1.5000000      0.99999998E-02  0.39999999E-01 2 1.0000 0
#  41 1 7 14   104.97595       5.0000000      0.12780087E-02   44.764832       1.5000000      0.99999998E-02  0.39999999E-01 2 1.0000 0
#  42 1 7 15   8.9454498       5.0000000      0.12780087E-02   44.692032       1.5000000      0.99999998E-02  0.39999999E-01 2 1.0000 0
#  43 1 6 15   92.638367       5.0000000      0.12780087E-02   44.627121       1.5000000      0.99999998E-02  0.39999999E-01 1 1.0000 0
END PACKAGEDATA

BEGIN CONNECTIONDATA
  1 -2
  2 1 -3
  3 2 -4
  4 3 -5
  5 4 -6
  6 5 -7
  7 6 -8
  8 7
  9 -10
  10 9 -11
  11 10 -12
  12 11 -13
  13 12 -14
  14 13 -15
  15 14 -16
  16 15 -17
  17 16 -18
  18 17
END CONNECTIONDATA

BEGIN PERIOD 1
   1 inflow   40.000000
   1 rainfall   0.0000000
   1 evaporation   0.0000000
   1 runoff   0.0000000
   2 inflow   0.0000000
   2 rainfall   0.0000000
   2 evaporation   0.0000000
   2 runoff   0.0000000
   3 inflow   0.0000000
   3 rainfall   0.0000000
   3 evaporation   0.0000000
   3 runoff   0.0000000
   4 inflow   0.0000000
   4 rainfall   0.0000000
   4 evaporation   0.0000000
   4 runoff   0.0000000
   5 inflow   0.0000000
   5 rainfall   0.0000000
   5 evaporation   0.0000000
   5 runoff   0.0000000
   6 inflow   0.0000000
   6 rainfall   0.0000000
   6 evaporation   0.0000000
   6 runoff   0.0000000
   7 inflow   0.0000000
   7 rainfall   0.0000000
   7 evaporation   0.0000000
   7 runoff   0.0000000
   8 inflow   0.0000000
   8 rainfall   0.0000000
   8 evaporation   0.0000000
   8 runoff   0.0000000
   9 inflow   0.0000000
   9 rainfall   0.0000000
   9 evaporation   0.0000000
   9 runoff   0.0000000
   10 inflow   0.0000000
   10 rainfall   0.0000000
   10 evaporation   0.0000000
   10 runoff   0.0000000
   11 inflow   0.0000000
   11 rainfall   0.0000000
   11 evaporation   0.0000000
   11 runoff   0.0000000
   12 inflow   0.0000000
   12 rainfall   0.0000000
   12 evaporation   0.0000000
   12 runoff   0.0000000
   13 inflow   0.0000000
   13 rainfall   0.0000000
   13 evaporation   0.0000000
   13 runoff   0.0000000
   14 inflow   0.0000000
   14 rainfall   0.0000000
   14 evaporation   0.0000000
   14 runoff   0.0000000
   15 inflow   0.0000000
   15 rainfall   0.0000000
   15 evaporation   0.0000000
   15 runoff   0.0000000
   16 inflow   0.0000000
   16 rainfall   0.0000000
   16 evaporation   0.0000000
   16 runoff   0.0000000
   17 inflow   0.0000000
   17 rainfall   0.0000000
   17 evaporation   0.0000000
   17 runoff   0.0000000
   18 inflow   0.0000000
   18 rainfall   0.0000000
   18 evaporation   0.0000000
   18 runoff   0.0000000
END PERIOD
