BEGIN OPTIONS
  PRINT_INPUT
  PRINT_FLOWS
  MODELNAMES
END OPTIONS

BEGIN DIMENSIONS
  MAXMVR 2
  MAXPACKAGES 2
END DIMENSIONS

BEGIN PACKAGES
  CHILD SFR-1
  PARENT SFR-1
END PACKAGES

BEGIN PERIOD 1
  PARENT SFR-1  8  CHILD SFR-1 1 FACTOR 1.0
  CHILD  SFR-1 89 PARENT SFR-1 9 FACTOR 1.0
END PERIOD 1
