# STO8 input file, prepared by MF5to6 on 8/2/2016 at 10:54:33.

BEGIN Options
END Options

BEGIN GRIDDATA
  ICONVERT LAYERED
    CONSTANT  1
  SS LAYERED
    CONSTANT   0.10000000E-04
  SY LAYERED
    CONSTANT   0.12000000    
END GRIDDATA
