# TDIS8 input file, prepared by MF5to6 on 8/2/2016 at 10:54:33.

BEGIN Options
  TIME_UNITS DAYS
END Options

BEGIN Dimensions
  NPER 1
END Dimensions

BEGIN PERIODDATA
    20.0000000               1    1.0000000      Items: PERLEN NSTP TSMULT
END PERIODDATA
