# OC8 input file, prepared by MF5to6 on 8/2/2016 at 10:54:33.

BEGIN Options
  BUDGET FILEOUT  mf6_uzf3col.cbb
  HEAD FILEOUT  mf6_uzf3col.hds
  HEAD PRINT_FORMAT  COLUMNS 10  WIDTH 11  DIGITS 4  GENERAL
END Options

BEGIN PERIOD 1
  PRINT BUDGET ALL
  SAVE HEAD ALL
  PRINT HEAD ALL
END PERIOD
