# IC8 input file, prepared by MF5to6 on 8/2/2016 at 10:54:33.

BEGIN Options
END Options

BEGIN GRIDDATA
  STRT LAYERED
    CONSTANT    1.000000    
END GRIDDATA
