# NWT for MODFLOW-NWT, generated by Flopy.
   1.0e-04   5.0e+02       100   1.0e-05         2         1         0 COMPLEX 
