# GHB for MODFLOW, generated by Flopy.
         2         0
         2         0 # stress period 0
         1         1         1 20.000000 40.027294
         1         1       100 11.000000 22.175083
        -1         0 # stress period 1
