# RCH for MODFLOW, generated by Flopy.
         1         0
         1         1 #Recharge array for stress period 1
CONSTANT    1.000000E-03                           #rech_1                        
