# Discretization file for MODFLOW, generated by Flopy.
         1         1       100         1         4         2
  0
CONSTANT    5.000000E+01                           #delr                          
CONSTANT    1.000000E+00                           #delc                          
CONSTANT    2.500000E+01                           #model_top                     
CONSTANT    0.000000E+00                           #botm Layer 1                  
      1.000000             1  1.000000  SS 
