# Simulation name file for MODFLOW 6 prepared by MF5to6

BEGIN Options
  continue
END Options

BEGIN Timing
  TDIS6  t4.tdis
END Timing

BEGIN Models
  GWF6  t4.nam  t4_disv
END Models

BEGIN Exchanges
END Exchanges

BEGIN SOLUTIONGROUP 1
  MXITER  1
  IMS6  t4.ims  t4_disv
END SOLUTIONGROUP
