BEGIN OPTIONS
END OPTIONS

BEGIN DIMENSIONS
  NCPL 150
  NLAY 3
  NVERT 176
END DIMENSIONS

BEGIN GRIDDATA
  TOP
    open/close top.dat FACTOR  1.0  IPRN -1
  BOTM LAYERED
    open/close bot1.dat FACTOR  1.0  IPRN -1
    open/close bot2.dat FACTOR  1.0  IPRN -1
    open/close bot3.dat FACTOR  1.0  IPRN -1
  IDOMAIN
    constant 1
END GRIDDATA

BEGIN VERTICES
1 0.0 5000.0
2 0.0 4500.0
3 500.0 4500.0
4 500.0 5000.0
5 1000.0 4500.0
6 1000.0 5000.0
7 1500.0 4500.0
8 1500.0 5000.0
9 2000.0 4500.0
10 2000.0 5000.0
11 2500.0 4500.0
12 2500.0 5000.0
13 3000.0 4500.0
14 3000.0 5000.0
15 3500.0 4500.0
16 3500.0 5000.0
17 4000.0 4500.0
18 4000.0 5000.0
19 4500.0 4500.0
20 4500.0 5000.0
21 5000.0 4500.0
22 5000.0 5000.0
23 5500.0 4500.0
24 5500.0 5000.0
25 6000.0 4500.0
26 6000.0 5000.0
27 6500.0 4500.0
28 6500.0 5000.0
29 7000.0 4500.0
30 7000.0 5000.0
31 7500.0 4500.0
32 7500.0 5000.0
33 0.0 4000.0
34 500.0 4000.0
35 1000.0 4000.0
36 1500.0 4000.0
37 2000.0 4000.0
38 2500.0 4000.0
39 3000.0 4000.0
40 3500.0 4000.0
41 4000.0 4000.0
42 4500.0 4000.0
43 5000.0 4000.0
44 5500.0 4000.0
45 6000.0 4000.0
46 6500.0 4000.0
47 7000.0 4000.0
48 7500.0 4000.0
49 0.0 3500.0
50 500.0 3500.0
51 1000.0 3500.0
52 1500.0 3500.0
53 2000.0 3500.0
54 2500.0 3500.0
55 3000.0 3500.0
56 3500.0 3500.0
57 4000.0 3500.0
58 4500.0 3500.0
59 5000.0 3500.0
60 5500.0 3500.0
61 6000.0 3500.0
62 6500.0 3500.0
63 7000.0 3500.0
64 7500.0 3500.0
65 0.0 3000.0
66 500.0 3000.0
67 1000.0 3000.0
68 1500.0 3000.0
69 2000.0 3000.0
70 2500.0 3000.0
71 3000.0 3000.0
72 3500.0 3000.0
73 4000.0 3000.0
74 4500.0 3000.0
75 5000.0 3000.0
76 5500.0 3000.0
77 6000.0 3000.0
78 6500.0 3000.0
79 7000.0 3000.0
80 7500.0 3000.0
81 0.0 2500.0
82 500.0 2500.0
83 1000.0 2500.0
84 1500.0 2500.0
85 2000.0 2500.0
86 2500.0 2500.0
87 3000.0 2500.0
88 3500.0 2500.0
89 4000.0 2500.0
90 4500.0 2500.0
91 5000.0 2500.0
92 5500.0 2500.0
93 6000.0 2500.0
94 6500.0 2500.0
95 7000.0 2500.0
96 7500.0 2500.0
97 0.0 2000.0
98 500.0 2000.0
99 1000.0 2000.0
100 1500.0 2000.0
101 2000.0 2000.0
102 2500.0 2000.0
103 3000.0 2000.0
104 3500.0 2000.0
105 4000.0 2000.0
106 4500.0 2000.0
107 5000.0 2000.0
108 5500.0 2000.0
109 6000.0 2000.0
110 6500.0 2000.0
111 7000.0 2000.0
112 7500.0 2000.0
113 0.0 1500.0
114 500.0 1500.0
115 1000.0 1500.0
116 1500.0 1500.0
117 2000.0 1500.0
118 2500.0 1500.0
119 3000.0 1500.0
120 3500.0 1500.0
121 4000.0 1500.0
122 4500.0 1500.0
123 5000.0 1500.0
124 5500.0 1500.0
125 6000.0 1500.0
126 6500.0 1500.0
127 7000.0 1500.0
128 7500.0 1500.0
129 0.0 1000.0
130 500.0 1000.0
131 1000.0 1000.0
132 1500.0 1000.0
133 2000.0 1000.0
134 2500.0 1000.0
135 3000.0 1000.0
136 3500.0 1000.0
137 4000.0 1000.0
138 4500.0 1000.0
139 5000.0 1000.0
140 5500.0 1000.0
141 6000.0 1000.0
142 6500.0 1000.0
143 7000.0 1000.0
144 7500.0 1000.0
145 0.0 500.0
146 500.0 500.0
147 1000.0 500.0
148 1500.0 500.0
149 2000.0 500.0
150 2500.0 500.0
151 3000.0 500.0
152 3500.0 500.0
153 4000.0 500.0
154 4500.0 500.0
155 5000.0 500.0
156 5500.0 500.0
157 6000.0 500.0
158 6500.0 500.0
159 7000.0 500.0
160 7500.0 500.0
161 0.0 0.0
162 500.0 0.0
163 1000.0 0.0
164 1500.0 0.0
165 2000.0 0.0
166 2500.0 0.0
167 3000.0 0.0
168 3500.0 0.0
169 4000.0 0.0
170 4500.0 0.0
171 5000.0 0.0
172 5500.0 0.0
173 6000.0 0.0
174 6500.0 0.0
175 7000.0 0.0
176 7500.0 0.0
END VERTICES

BEGIN CELL2D
1 250.0 4750.0 5 1 4 3 2 1
2 750.0 4750.0 5 4 6 5 3 4 
3 1250.0 4750.0 5 6 8 7 5 6 
4 1750.0 4750.0 5 8 10 9 7 8 
5 2250.0 4750.0 5 10 12 11 9 10 
6 2750.0 4750.0 5 12 14 13 11 12 
7 3250.0 4750.0 5 14 16 15 13 14 
8 3750.0 4750.0 5 16 18 17 15 16 
9 4250.0 4750.0 5 18 20 19 17 18 
10 4750.0 4750.0 5 20 22 21 19 20 
11 5250.0 4750.0 5 22 24 23 21 22 
12 5750.0 4750.0 5 24 26 25 23 24 
13 6250.0 4750.0 5 26 28 27 25 26 
14 6750.0 4750.0 5 28 30 29 27 28 
15 7250.0 4750.0 5 30 32 31 29 30 
16 250.0 4250.0 5 2 3 34 33 2 
17 750.0 4250.0 5 3 5 35 34 3 
18 1250.0 4250.0 5 5 7 36 35 5 
19 1750.0 4250.0 5 7 9 37 36 7 
20 2250.0 4250.0 5 9 11 38 37 9 
21 2750.0 4250.0 5 11 13 39 38 11 
22 3250.0 4250.0 5 13 15 40 39 13 
23 3750.0 4250.0 5 15 17 41 40 15 
24 4250.0 4250.0 5 17 19 42 41 17 
25 4750.0 4250.0 5 19 21 43 42 19 
26 5250.0 4250.0 5 21 23 44 43 21 
27 5750.0 4250.0 5 23 25 45 44 23 
28 6250.0 4250.0 5 25 27 46 45 25 
29 6750.0 4250.0 5 27 29 47 46 27 
30 7250.0 4250.0 5 29 31 48 47 29 
31 250.0 3750.0 5 33 34 50 49 33 
32 750.0 3750.0 5 34 35 51 50 34 
33 1250.0 3750.0 5 35 36 52 51 35 
34 1750.0 3750.0 5 36 37 53 52 36 
35 2250.0 3750.0 5 37 38 54 53 37 
36 2750.0 3750.0 5 38 39 55 54 38 
37 3250.0 3750.0 5 39 40 56 55 39 
38 3750.0 3750.0 5 40 41 57 56 40 
39 4250.0 3750.0 5 41 42 58 57 41 
40 4750.0 3750.0 5 42 43 59 58 42 
41 5250.0 3750.0 5 43 44 60 59 43 
42 5750.0 3750.0 5 44 45 61 60 44 
43 6250.0 3750.0 5 45 46 62 61 45 
44 6750.0 3750.0 5 46 47 63 62 46 
45 7250.0 3750.0 5 47 48 64 63 47 
46 250.0 3250.0 5 49 50 66 65 49 
47 750.0 3250.0 5 50 51 67 66 50 
48 1250.0 3250.0 5 51 52 68 67 51 
49 1750.0 3250.0 5 52 53 69 68 52 
50 2250.0 3250.0 5 53 54 70 69 53 
51 2750.0 3250.0 5 54 55 71 70 54 
52 3250.0 3250.0 5 55 56 72 71 55 
53 3750.0 3250.0 5 56 57 73 72 56 
54 4250.0 3250.0 5 57 58 74 73 57 
55 4750.0 3250.0 5 58 59 75 74 58 
56 5250.0 3250.0 5 59 60 76 75 59 
57 5750.0 3250.0 5 60 61 77 76 60 
58 6250.0 3250.0 5 61 62 78 77 61 
59 6750.0 3250.0 5 62 63 79 78 62 
60 7250.0 3250.0 5 63 64 80 79 63 
61 250.0 2750.0 5 65 66 82 81 65 
62 750.0 2750.0 5 66 67 83 82 66 
63 1250.0 2750.0 5 67 68 84 83 67 
64 1750.0 2750.0 5 68 69 85 84 68 
65 2250.0 2750.0 5 69 70 86 85 69 
66 2750.0 2750.0 5 70 71 87 86 70 
67 3250.0 2750.0 5 71 72 88 87 71 
68 3750.0 2750.0 5 72 73 89 88 72 
69 4250.0 2750.0 5 73 74 90 89 73 
70 4750.0 2750.0 5 74 75 91 90 74 
71 5250.0 2750.0 5 75 76 92 91 75 
72 5750.0 2750.0 5 76 77 93 92 76 
73 6250.0 2750.0 5 77 78 94 93 77 
74 6750.0 2750.0 5 78 79 95 94 78 
75 7250.0 2750.0 5 79 80 96 95 79 
76 250.0 2250.0 5 81 82 98 97 81 
77 750.0 2250.0 5 82 83 99 98 82 
78 1250.0 2250.0 5 83 84 100 99 83 
79 1750.0 2250.0 5 84 85 101 100 84 
80 2250.0 2250.0 5 85 86 102 101 85 
81 2750.0 2250.0 5 86 87 103 102 86 
82 3250.0 2250.0 5 87 88 104 103 87 
83 3750.0 2250.0 5 88 89 105 104 88 
84 4250.0 2250.0 5 89 90 106 105 89 
85 4750.0 2250.0 5 90 91 107 106 90 
86 5250.0 2250.0 5 91 92 108 107 91 
87 5750.0 2250.0 5 92 93 109 108 92 
88 6250.0 2250.0 5 93 94 110 109 93 
89 6750.0 2250.0 5 94 95 111 110 94 
90 7250.0 2250.0 5 95 96 112 111 95 
91 250.0 1750.0 5 97 98 114 113 97 
92 750.0 1750.0 5 98 99 115 114 98 
93 1250.0 1750.0 5 99 100 116 115 99 
94 1750.0 1750.0 5 100 101 117 116 100 
95 2250.0 1750.0 5 101 102 118 117 101 
96 2750.0 1750.0 5 102 103 119 118 102 
97 3250.0 1750.0 5 103 104 120 119 103 
98 3750.0 1750.0 5 104 105 121 120 104 
99 4250.0 1750.0 5 105 106 122 121 105 
100 4750.0 1750.0 5 106 107 123 122 106 
101 5250.0 1750.0 5 107 108 124 123 107 
102 5750.0 1750.0 5 108 109 125 124 108 
103 6250.0 1750.0 5 109 110 126 125 109 
104 6750.0 1750.0 5 110 111 127 126 110 
105 7250.0 1750.0 5 111 112 128 127 111 
106 250.0 1250.0 5 113 114 130 129 113 
107 750.0 1250.0 5 114 115 131 130 114 
108 1250.0 1250.0 5 115 116 132 131 115 
109 1750.0 1250.0 5 116 117 133 132 116 
110 2250.0 1250.0 5 117 118 134 133 117 
111 2750.0 1250.0 5 118 119 135 134 118 
112 3250.0 1250.0 5 119 120 136 135 119 
113 3750.0 1250.0 5 120 121 137 136 120 
114 4250.0 1250.0 5 121 122 138 137 121 
115 4750.0 1250.0 5 122 123 139 138 122 
116 5250.0 1250.0 5 123 124 140 139 123 
117 5750.0 1250.0 5 124 125 141 140 124 
118 6250.0 1250.0 5 125 126 142 141 125 
119 6750.0 1250.0 5 126 127 143 142 126 
120 7250.0 1250.0 5 127 128 144 143 127 
121 250.0 750.0 5 129 130 146 145 129 
122 750.0 750.0 5 130 131 147 146 130 
123 1250.0 750.0 5 131 132 148 147 131 
124 1750.0 750.0 5 132 133 149 148 132 
125 2250.0 750.0 5 133 134 150 149 133 
126 2750.0 750.0 5 134 135 151 150 134 
127 3250.0 750.0 5 135 136 152 151 135 
128 3750.0 750.0 5 136 137 153 152 136 
129 4250.0 750.0 5 137 138 154 153 137 
130 4750.0 750.0 5 138 139 155 154 138 
131 5250.0 750.0 5 139 140 156 155 139 
132 5750.0 750.0 5 140 141 157 156 140 
133 6250.0 750.0 5 141 142 158 157 141 
134 6750.0 750.0 5 142 143 159 158 142 
135 7250.0 750.0 5 143 144 160 159 143 
136 250.0 250.0 5 145 146 162 161 145 
137 750.0 250.0 5 146 147 163 162 146 
138 1250.0 250.0 5 147 148 164 163 147 
139 1750.0 250.0 5 148 149 165 164 148 
140 2250.0 250.0 5 149 150 166 165 149 
141 2750.0 250.0 5 150 151 167 166 150 
142 3250.0 250.0 5 151 152 168 167 151 
143 3750.0 250.0 5 152 153 169 168 152 
144 4250.0 250.0 5 153 154 170 169 153 
145 4750.0 250.0 5 154 155 171 170 154 
146 5250.0 250.0 5 155 156 172 171 155 
147 5750.0 250.0 5 156 157 173 172 156 
148 6250.0 250.0 5 157 158 174 173 157 
149 6750.0 250.0 5 158 159 175 174 158 
150 7250.0 250.0 5 159 160 176 175 159 
END CELL2D

