# NPF8 input file, prepared by MF5to6 on 8/9/2016 at 17:58:04.

BEGIN Options
  REWET  WETFCT 1.00000000 IWETIT 1 IHDWET 0
END Options

BEGIN GRIDDATA
  Icelltype LAYERED
    CONSTANT  1
    CONSTANT  1
    CONSTANT  0
  k  LAYERED
    CONSTANT    10.0000000    
    CONSTANT        1.e-12
    CONSTANT    10.0000000    
  K33  LAYERED
    CONSTANT          0.05    
    CONSTANT          0.05
    CONSTANT          0.05    
  WETDRY LAYERED
    INTERNAL  FACTOR   1.000000E+00 IPRN    7  WETDRY layer   1
       2.000000E+00  2.000000E+00  2.000000E+00  2.000000E+00  2.000000E+00  2.000000E+00  2.000000E+00  2.000000E+00 -2.000000E+00 -2.000000E+00 
      -2.000000E+00 -2.000000E+00 -2.000000E+00 -2.000000E+00 -2.000000E+00 
       2.000000E+00  2.000000E+00  2.000000E+00  2.000000E+00  2.000000E+00  2.000000E+00  2.000000E+00  2.000000E+00 -2.000000E+00 -2.000000E+00 
      -2.000000E+00 -2.000000E+00 -2.000000E+00 -2.000000E+00 -2.000000E+00 
       2.000000E+00  2.000000E+00  2.000000E+00 -2.000000E+00  2.000000E+00  2.000000E+00  2.000000E+00  2.000000E+00 -2.000000E+00 -2.000000E+00 
      -2.000000E+00 -2.000000E+00 -2.000000E+00 -2.000000E+00 -2.000000E+00 
       2.000000E+00  2.000000E+00  2.000000E+00  2.000000E+00  2.000000E+00  2.000000E+00  2.000000E+00  2.000000E+00 -2.000000E+00 -2.000000E+00 
      -2.000000E+00 -2.000000E+00 -2.000000E+00 -2.000000E+00 -2.000000E+00 
       2.000000E+00  2.000000E+00  2.000000E+00  2.000000E+00  2.000000E+00  2.000000E+00  2.000000E+00  2.000000E+00 -2.000000E+00 -2.000000E+00 
      -2.000000E+00 -2.000000E+00 -2.000000E+00 -2.000000E+00 -2.000000E+00 
       2.000000E+00  2.000000E+00  2.000000E+00  2.000000E+00  2.000000E+00  2.000000E+00  2.000000E+00  2.000000E+00 -2.000000E+00 -2.000000E+00 
      -2.000000E+00 -2.000000E+00 -2.000000E+00 -2.000000E+00 -2.000000E+00 
       2.000000E+00  2.000000E+00  2.000000E+00  2.000000E+00  2.000000E+00  2.000000E+00  2.000000E+00  2.000000E+00 -2.000000E+00 -2.000000E+00 
      -2.000000E+00 -2.000000E+00 -2.000000E+00 -2.000000E+00 -2.000000E+00 
       2.000000E+00  2.000000E+00  2.000000E+00 -2.000000E+00  2.000000E+00  2.000000E+00  2.000000E+00  2.000000E+00 -2.000000E+00 -2.000000E+00 
      -2.000000E+00 -2.000000E+00 -2.000000E+00 -2.000000E+00 -2.000000E+00 
       2.000000E+00  2.000000E+00  2.000000E+00  2.000000E+00  2.000000E+00  2.000000E+00  2.000000E+00  2.000000E+00 -2.000000E+00 -2.000000E+00 
      -2.000000E+00 -2.000000E+00 -2.000000E+00 -2.000000E+00 -2.000000E+00 
       2.000000E+00  2.000000E+00  2.000000E+00  2.000000E+00  2.000000E+00  2.000000E+00  2.000000E+00  2.000000E+00 -2.000000E+00 -2.000000E+00 
      -2.000000E+00 -2.000000E+00 -2.000000E+00 -2.000000E+00 -2.000000E+00 
    INTERNAL  FACTOR   1.000000E+00  IPRN    7  WETDRY layer   1
       2.000000E+00  2.000000E+00  2.000000E+00  2.000000E+00  2.000000E+00  2.000000E+00  2.000000E+00  2.000000E+00 -2.000000E+00 -2.000000E+00 
      -2.000000E+00 -2.000000E+00 -2.000000E+00 -2.000000E+00 -2.000000E+00 
       2.000000E+00  2.000000E+00  2.000000E+00  2.000000E+00  2.000000E+00  2.000000E+00  2.000000E+00  2.000000E+00 -2.000000E+00 -2.000000E+00 
      -2.000000E+00 -2.000000E+00 -2.000000E+00 -2.000000E+00 -2.000000E+00 
       2.000000E+00  2.000000E+00  2.000000E+00 -2.000000E+00  2.000000E+00  2.000000E+00  2.000000E+00  2.000000E+00 -2.000000E+00 -2.000000E+00 
      -2.000000E+00 -2.000000E+00 -2.000000E+00 -2.000000E+00 -2.000000E+00 
       2.000000E+00  2.000000E+00  2.000000E+00  2.000000E+00  2.000000E+00  2.000000E+00  2.000000E+00  2.000000E+00 -2.000000E+00 -2.000000E+00 
      -2.000000E+00 -2.000000E+00 -2.000000E+00 -2.000000E+00 -2.000000E+00 
       2.000000E+00  2.000000E+00  2.000000E+00  2.000000E+00  2.000000E+00  2.000000E+00  2.000000E+00  2.000000E+00 -2.000000E+00 -2.000000E+00 
      -2.000000E+00 -2.000000E+00 -2.000000E+00 -2.000000E+00 -2.000000E+00 
       2.000000E+00  2.000000E+00  2.000000E+00  2.000000E+00  2.000000E+00  2.000000E+00  2.000000E+00  2.000000E+00 -2.000000E+00 -2.000000E+00 
      -2.000000E+00 -2.000000E+00 -2.000000E+00 -2.000000E+00 -2.000000E+00 
       2.000000E+00  2.000000E+00  2.000000E+00  2.000000E+00  2.000000E+00  2.000000E+00  2.000000E+00  2.000000E+00 -2.000000E+00 -2.000000E+00 
      -2.000000E+00 -2.000000E+00 -2.000000E+00 -2.000000E+00 -2.000000E+00 
       2.000000E+00  2.000000E+00  2.000000E+00 -2.000000E+00  2.000000E+00  2.000000E+00  2.000000E+00  2.000000E+00 -2.000000E+00 -2.000000E+00 
      -2.000000E+00 -2.000000E+00 -2.000000E+00 -2.000000E+00 -2.000000E+00 
       2.000000E+00  2.000000E+00  2.000000E+00  2.000000E+00  2.000000E+00  2.000000E+00  2.000000E+00  2.000000E+00 -2.000000E+00 -2.000000E+00 
      -2.000000E+00 -2.000000E+00 -2.000000E+00 -2.000000E+00 -2.000000E+00 
       2.000000E+00  2.000000E+00  2.000000E+00  2.000000E+00  2.000000E+00  2.000000E+00  2.000000E+00  2.000000E+00 -2.000000E+00 -2.000000E+00 
      -2.000000E+00 -2.000000E+00 -2.000000E+00 -2.000000E+00 -2.000000E+00 
    CONSTANT    0.00000000    
END GRIDDATA
