# RIV8 input file, prepared by MF5to6 on 8/9/2016 at 17:58:04.

BEGIN Options
  PRINT_INPUT
END Options

BEGIN Dimensions
  MAXBOUND  10
END Dimensions

BEGIN PERIOD 1
  3  15    0.0000000        10000.000       -5.0000000
  3  30    0.0000000        10000.000       -5.0000000
  3  45    0.0000000        10000.000       -5.0000000
  3  60    0.0000000        10000.000       -5.0000000
  3  75    0.0000000        10000.000       -5.0000000
  3  90    0.0000000        10000.000       -5.0000000
  3  105    0.0000000        10000.000       -5.0000000
  3  120    0.0000000        10000.000       -5.0000000
  3  135    0.0000000        10000.000       -5.0000000
  3  150    0.0000000        10000.000       -5.0000000
END PERIOD
