BEGIN OPTIONS
  READASARRAYS
  FIXED_CELL
  AUXILIARY MYEVTMULT
  AUXMULTNAME MYEVTMULT
  PRINT_FLOWS
  TAS6 FILEIN flow15.evt.tas
  TAS6 FILEIN flow15.evt.mult.tas
END OPTIONS

BEGIN PERIOD 1
  SURFACE
    CONSTANT 10.
  RATE TIMEARRAYSERIES etrate
  DEPTH
    CONSTANT 5.
  MYEVTMULT TIMEARRAYSERIES myevtmult
END PERIOD

BEGIN PERIOD 2
END PERIOD

BEGIN PERIOD 3
  RATE TIMEARRAYSERIES etrate
  MYEVTMULT TIMEARRAYSERIES myevtmult
END PERIOD

BEGIN PERIOD 4
  RATE
    CONSTANT 0.01
  MYEVTMULT 
    CONSTANT 1.0
END PERIOD