begin options
  PRINT_FLOWS
  SAVE_FLOWS
  REWET WETFCT 0.5 IWETIT 1 IHDWET 0
  PERCHED
end options

BEGIN GRIDDATA
  icelltype
    constant 1
  K
    constant 1.0                
  K33
    constant 1.0
  wetdry
    constant -1.e-5
END GRIDDATA
