BEGIN OPTIONS

END OPTIONS

BEGIN DIMENSIONS
  NLAY 4
  NROW 1
  NCOL 1
END DIMENSIONS

BEGIN GRIDDATA
  delr
    CONSTANT   1.0  DELR
  delc
    CONSTANT   1.0  DELC
  top
    CONSTANT   0.0  TOP
  botm LAYERED
    CONSTANT   -1.0  BOTM LAYER 1
    CONSTANT   -2.0  BOTM LAYER 2
    CONSTANT   -3.0  BOTM LAYER 3
    CONSTANT   -4.0  BOTM LAYER 4
END GRIDDATA
