begin options
  PRINT_OPTION SUMMARY
end options

begin nonlinear
  outer_hclose 1.e-3
  outer_maximum 20 
  under_relaxation none
end nonlinear

begin linear
  inner_hclose 1.0e-3
  inner_rclose 1000.
  inner_maximum 30
  linear_acceleration bicgstab
  scaling_method none
  REORDERING_METHOD none
  relaxation_factor 0.97
end linear
