# SMS8 input file, prepared by MF5to6 on 8/23/2016 at 10:22:04.

BEGIN Options
  PRINT_OPTION  SUMMARY
  COMPLEXITY  SIMPLE
END Options

BEGIN Nonlinear
  OUTER_MAXIMUM  7000
END Nonlinear
