BEGIN Options
  LIST       mv.lst
END Options

BEGIN Packages
  DIS6       mv.dis
  IC6        mv.ic
  NPF6       mv.npf
  STO6       mv.sto
  OC6        mv.oc
  LAK6       mv.lak
  RCH6       mv.rch
  SFR6       mv.sfr
  WEL6       mv.wel
END Packages

