BEGIN Options
  PRINT_FLOWS
  UNIT_CONVERSION    128390.00    
  MOVER
  OBS6 FILEIN mv.sfr.obs
END Options

BEGIN Dimensions
  NREACHES  18
END Dimensions

BEGIN PACKAGEDATA
  # rno cellid   rlen  rwid   rgrd  rbtp rbth  rbhk  man ncon ustrf ndv
   1    1 23  9 500.0  50.0 0.0002 -0.30  1.0   4.0 0.03    1   1.0   0
   2    1 24  9 500.0  50.0 0.0002 -0.40  1.0   4.0 0.03    2   1.0   0
   3    1 25  9 500.0  50.0 0.0002 -0.50  1.0   4.0 0.03    2   1.0   0
   4    1 26  9 500.0  50.0 0.0002 -0.60  1.0   4.0 0.03    2   1.0   0
   5    1 27  9 500.0  50.0 0.0002 -0.70  1.0   4.0 0.03    2   1.0   0
   6    1 28  9 500.0  50.0 0.0002 -0.80  1.0   4.0 0.03    2   1.0   0
   7    1 29  9 500.0  50.0 0.0002 -0.90  1.0   4.0 0.03    2   1.0   0
   8    1 30  9 500.0  50.0 0.0002 -1.00  1.0   4.0 0.03    2   1.0   0
   9    1 31  9 500.0  50.0 0.0002 -1.10  1.0   4.0 0.03    2   1.0   0
  10    1 32  9 500.0  50.0 0.0002 -1.20  1.0   4.0 0.03    2   1.0   0
  11    1 33  9 500.0  50.0 0.0002 -1.30  1.0   4.0 0.03    2   1.0   0
  12    1 34  9 500.0  50.0 0.0002 -1.40  1.0   4.0 0.03    2   1.0   0
  13    1 35  9 500.0  50.0 0.0002 -1.50  1.0   4.0 0.03    2   1.0   0
  14    1 36  9 500.0  50.0 0.0002 -1.60  1.0   4.0 0.03    2   1.0   0
  15    1 37  9 500.0  50.0 0.0002 -1.70  1.0   4.0 0.03    2   1.0   0
  16    1 38  9 500.0  50.0 0.0002 -1.80  1.0   4.0 0.03    2   1.0   0
  17    1 39  9 500.0  50.0 0.0002 -1.90  1.0   4.0 0.03    2   1.0   0
  18    1 40  9 500.0  50.0 0.0002 -2.00  1.0   4.0 0.03    1   1.0   0
END PACKAGEDATA

BEGIN CONNECTIONDATA
   1     -2
   2  1  -3
   3  2  -4
   4  3  -5
   5  4  -6
   6  5  -7
   7  6  -8
   8  7  -9
   9  8 -10
  10  9 -11
  11 10 -12
  12 11 -13
  13 12 -14
  14 13 -15
  15 14 -16
  16 15 -17
  17 16 -18
  18 17
END CONNECTIONDATA

