BEGIN OPTIONS
  TIME_UNITS days
END OPTIONS

BEGIN DIMENSIONS
  NPER 3
END DIMENSIONS

BEGIN PERIODDATA
     1.0   1  1.0
  3650.0 120  1.0
  7300.0   4  1.0
END PERIODDATA
