BEGIN OPTIONS
  SAVE_FLOWS
  XT3D  
END OPTIONS

BEGIN GRIDDATA
  ICELLTYPE
    CONSTANT 0
  K
    CONSTANT 1.
  K33
    CONSTANT 1.
END GRIDDATA
