# NPF8 input file, prepared by MF5to6 on 3/31/2016 at 18:28:22.

BEGIN Options
  #PERCHED
END Options

BEGIN GRIDDATA
  Icelltype LAYERED
    CONSTANT  1
    CONSTANT  1
    CONSTANT  1
    CONSTANT  1
    CONSTANT  1
  k  LAYERED
    CONSTANT    30.0000000    
    CONSTANT    30.0000000    
    CONSTANT    30.0000000    
    CONSTANT    30.0000000    
    CONSTANT    30.0000000    
  K33  LAYERED
    CONSTANT    30.0000000    
    CONSTANT    30.0000000    
    CONSTANT    30.0000000    
    CONSTANT    30.0000000    
    CONSTANT    30.0000000    
END GRIDDATA
