# MODFLOW-NWT data for Prob 2 from McDonald and others (1991)
1.0E-6 1. 100 1.0e-5  2  1 1 SPECIFIED 0.97 1.0e-4 0.000  0.10 0  20 1.5 0.7 
2 0 3 5 1 0.0 0 1.0E-4 1.0e-6  50       XMD