# SMS for MODFLOW-USG, generated by Flopy.
1e-6 1e-6 100 50 2 1 1
0.97 0.0001 0.0 0.1 0 1.1 0.7 0.0
2 0 3 5 0 0.0 0 1e-06
