# Output control package file for MODFLOW, generated by Flopy.
HEAD PRINT FORMAT   0
HEAD SAVE UNIT    51
DRAWDOWN PRINT FORMAT   0
COMPACT BUDGET FILES

period 1 step 1 
save head
print budget

period 1 step 10 
save head
print budget

period 1 step 20 
save head
print budget

period 1 step 30 
save head
print budget

period 1 step 40 
save head
print budget

period 1 step 50 
save head
print budget

period 2 step 1 
save head
print budget

period 2 step 10 
save head
print budget

period 2 step 20 
save head
print budget

period 2 step 30 
save head
print budget

period 2 step 40 
save head
print budget

period 2 step 50 
save head
print budget
