# Multi-node well 2 (MNW2) file for MODFLOW, generated by Flopy
         2        -1         2 
pwell       -1
THIEM          0         0         0         0
      0.15
       -50     -514.9         51         51
iwell       -1
THIEM          0         0         0         0
      0.25
    -142.9     -514.9         25         25
         2
pwell     -1767
iwell         0
         2
pwell     -2767
iwell      2767
