# Basic package file for MODFLOW, generated by Flopy.
 FREE
CONSTANT  1            # ibound layer 01               
CONSTANT  1            # ibound layer 02                
CONSTANT  1            # ibound layer 03                
CONSTANT  1            # ibound layer 04                
CONSTANT  1            # ibound layer 05                
CONSTANT  1            # ibound layer 06                
CONSTANT  1            # ibound layer 07                
CONSTANT  1            # ibound layer 08                
CONSTANT  1            # ibound layer 09                
CONSTANT  1            # ibound layer 10                
        -999.99
CONSTANT 6.000000E+02  # strt layer 01
CONSTANT 6.000000E+02  # strt layer 02
CONSTANT 6.000000E+02  # strt layer 03
CONSTANT 6.000000E+02  # strt layer 04
CONSTANT 6.000000E+02  # strt layer 05
CONSTANT 6.000000E+02  # strt layer 06
CONSTANT 6.000000E+02  # strt layer 07
CONSTANT 6.000000E+02  # strt layer 08
CONSTANT 6.000000E+02  # strt layer 09
CONSTANT 6.000000E+02  # strt layer 10
