begin options
  print_option all
end options

begin nonlinear
	outer_dvclose 1.e-8
	outer_maximum 1000
end nonlinear


begin linear
	inner_dvclose 1.0e-9
	inner_rclose 1.0e-6
	inner_maximum 200
	linear_acceleration bicgstab
	relaxation_factor 0.99
end linear
