#option block.  Note -- no comments allowed on auxiliary line
begin options
  PRINT_INPUT (echo input to listing file)
  PRINT_FLOWS  (print the flows to the listing file)
  OBS6 FILEIN        Reilly.maw.obs
  SAVE_FLOWS
end options

begin dimensions
  NMAWWELLS 1
end dimensions

BEGIN PACKAGEDATA
#      no radius bottom  strt     condeqn ngwnodes name          
        1 0.1333   -65. 10.0    SPECIFIED       12 'ntwell'       
END PACKAGEDATA

BEGIN CONNECTIONDATA
#   conn  l  r  c  stop sbot     K      rskin
  1    1  2 16 14    -5  -65 2982.54        0
  1    2  3 16 14    -5  -65 2982.54        0
  1    3  4 16 14    -5  -65 2982.54        0
  1    4  5 16 14    -5  -65 2982.54        0
  1    5  6 16 14    -5  -65 2982.54        0
  1    6  7 16 14    -5  -65 2982.54        0
  1    7  8 16 14    -5  -65 2982.54        0
  1    8  9 16 14    -5  -65 2982.54        0
  1    9 10 16 14    -5  -65 2982.54        0
  1   10 11 16 14    -5  -65 2982.54        0
  1   11 12 16 14    -5  -65 2982.54        0
  1   12 13 16 14    -5  -65 2982.54        0
END CONNECTIONDATA

begin period 1
  1 rate 0.0
end period
