BEGIN OPTIONS
  HEAD FILEOUT Reilly.hds
  BUDGET FILEOUT Reilly.cbc
END OPTIONS

BEGIN PERIOD 1
  PRINT BUDGET ALL
  SAVE HEAD ALL
  SAVE BUDGET ALL
END PERIOD
