# NWT for MODFLOW-NWT, generated by Flopy.
   1.0e-05   1.0e-05        50   1.0e-05         2         1         0 COMPLEX 
