# Simulation name file for MODFLOW 6 prepared by MF5to6

BEGIN Options
END Options

BEGIN Timing
  TDIS6  sfr_hole.tdis
END Timing

BEGIN Models
  GWF6  sfr_hole.nam  sfr_hole
END Models

BEGIN Exchanges
END Exchanges

BEGIN SOLUTIONGROUP 1
  MXITER  1
  IMS6  sfr_hole.ims  sfr_hole
END SOLUTIONGROUP
