# WEL8 input file, prepared by MF5to6 on 9/26/2016 at 10:29:24.

BEGIN Options
  PRINT_INPUT
END Options

BEGIN Dimensions
  MAXBOUND  2
END Dimensions

BEGIN PERIOD 1
  1  26  79  -0.85000000
END PERIOD
