# CHD8 input file, prepared by MF5to6 on 9/26/2016 at 10:29:24.

BEGIN Options
  PRINT_INPUT
END Options

BEGIN Dimensions
  MAXBOUND  100
END Dimensions

BEGIN PERIOD 1
  1  1  1    12.000000        12.000000
  1  2  1    12.000000        12.000000
  1  3  1    12.000000        12.000000
  1  4  1    12.000000        12.000000
  1  5  1    12.000000        12.000000
  1  6  1    12.000000        12.000000
  1  7  1    12.000000        12.000000
  1  8  1    12.000000        12.000000
  1  9  1    12.000000        12.000000
  1  10  1    12.000000        12.000000
  1  11  1    12.000000        12.000000
  1  12  1    12.000000        12.000000
  1  13  1    12.000000        12.000000
  1  14  1    12.000000        12.000000
  1  15  1    12.000000        12.000000
  1  16  1    12.000000        12.000000
  1  17  1    12.000000        12.000000
  1  18  1    12.000000        12.000000
  1  19  1    12.000000        12.000000
  1  20  1    12.000000        12.000000
  1  21  1    12.000000        12.000000
  1  22  1    12.000000        12.000000
  1  23  1    12.000000        12.000000
  1  24  1    12.000000        12.000000
  1  25  1    12.000000        12.000000
  1  26  1    12.000000        12.000000
  1  27  1    12.000000        12.000000
  1  28  1    12.000000        12.000000
  1  29  1    12.000000        12.000000
  1  30  1    12.000000        12.000000
  1  31  1    12.000000        12.000000
  1  32  1    12.000000        12.000000
  1  33  1    12.000000        12.000000
  1  34  1    12.000000        12.000000
  1  35  1    12.000000        12.000000
  1  36  1    12.000000        12.000000
  1  37  1    12.000000        12.000000
  1  38  1    12.000000        12.000000
  1  39  1    12.000000        12.000000
  1  40  1    12.000000        12.000000
  1  41  1    12.000000        12.000000
  1  42  1    12.000000        12.000000
  1  43  1    12.000000        12.000000
  1  44  1    12.000000        12.000000
  1  45  1    12.000000        12.000000
  1  46  1    12.000000        12.000000
  1  47  1    12.000000        12.000000
  1  48  1    12.000000        12.000000
  1  49  1    12.000000        12.000000
  1  50  1    12.000000        12.000000
  1  1  108    8.0000000        8.0000000
  1  2  108    8.0000000        8.0000000
  1  3  108    8.0000000        8.0000000
  1  4  108    8.0000000        8.0000000
  1  5  108    8.0000000        8.0000000
  1  6  108    8.0000000        8.0000000
  1  7  108    8.0000000        8.0000000
  1  8  108    8.0000000        8.0000000
  1  9  108    8.0000000        8.0000000
  1  10  108    8.0000000        8.0000000
  1  11  108    8.0000000        8.0000000
  1  12  108    8.0000000        8.0000000
  1  13  108    8.0000000        8.0000000
  1  14  108    8.0000000        8.0000000
  1  15  108    8.0000000        8.0000000
  1  16  108    8.0000000        8.0000000
  1  17  108    8.0000000        8.0000000
  1  18  108    8.0000000        8.0000000
  1  19  108    8.0000000        8.0000000
  1  20  108    8.0000000        8.0000000
  1  21  108    8.0000000        8.0000000
  1  22  108    8.0000000        8.0000000
  1  23  108    8.0000000        8.0000000
  1  24  108    8.0000000        8.0000000
  1  25  108    8.0000000        8.0000000
  1  26  108    8.0000000        8.0000000
  1  27  108    8.0000000        8.0000000
  1  28  108    8.0000000        8.0000000
  1  29  108    8.0000000        8.0000000
  1  30  108    8.0000000        8.0000000
  1  31  108    8.0000000        8.0000000
  1  32  108    8.0000000        8.0000000
  1  33  108    8.0000000        8.0000000
  1  34  108    8.0000000        8.0000000
  1  35  108    8.0000000        8.0000000
  1  36  108    8.0000000        8.0000000
  1  37  108    8.0000000        8.0000000
  1  38  108    8.0000000        8.0000000
  1  39  108    8.0000000        8.0000000
  1  40  108    8.0000000        8.0000000
  1  41  108    8.0000000        8.0000000
  1  42  108    8.0000000        8.0000000
  1  43  108    8.0000000        8.0000000
  1  44  108    8.0000000        8.0000000
  1  45  108    8.0000000        8.0000000
  1  46  108    8.0000000        8.0000000
  1  47  108    8.0000000        8.0000000
  1  48  108    8.0000000        8.0000000
  1  49  108    8.0000000        8.0000000
  1  50  108    8.0000000        8.0000000
END PERIOD
