# NPF8 input file, prepared by MF5to6 on 9/26/2016 at 10:29:24.

BEGIN Options
  PERCHED
  VARIABLECV  DEWATERED
  SAVE_FLOWS
END Options

BEGIN GRIDDATA
  Icelltype LAYERED
    CONSTANT  0
  k  LAYERED
    INTERNAL  FACTOR  1.0  IPRN  12
  0.4250000E-07  0.4250000E-07  0.4250000E-07  0.4250000E-07  0.4250000E-07  0.4250000E-07  0.4250000E-07  0.4250000E-07  0.4250000E-07  0.4250000E-07
  0.4250000E-07  0.4250000E-07  0.4250000E-07  0.4250000E-07  0.4250000E-07  0.4250000E-07  0.4250000E-07  0.4250000E-07  0.1350000E-06  0.1350000E-06
  0.1350000E-06  0.1350000E-06  0.1350000E-06  0.1350000E-06  0.1350000E-06  0.1350000E-06  0.1350000E-06  0.1350000E-06  0.1350000E-06  0.1350000E-06
  0.1350000E-06  0.1350000E-06  0.1350000E-06  0.1350000E-06  0.1350000E-06  0.1350000E-06  0.1611000E-05  0.1611000E-05  0.1611000E-05  0.1611000E-05
  0.1611000E-05  0.1611000E-05  0.1611000E-05  0.1611000E-05  0.1611000E-05  0.1611000E-05  0.1611000E-05  0.1611000E-05  0.1611000E-05  0.1611000E-05
  0.1611000E-05  0.1611000E-05  0.1611000E-05  0.1611000E-05  0.1611000E-05  0.1611000E-05  0.1611000E-05  0.1611000E-05  0.1611000E-05  0.1611000E-05
  0.1611000E-05  0.1611000E-05  0.1611000E-05  0.1611000E-05  0.1611000E-05  0.1611000E-05  0.1611000E-05  0.1611000E-05  0.1611000E-05  0.1611000E-05
  0.1611000E-05  0.1611000E-05  0.1611000E-05  0.1611000E-05  0.1611000E-05  0.1611000E-05  0.1611000E-05  0.1611000E-05  0.1350000E-06  0.1350000E-06
  0.1350000E-06  0.1350000E-06  0.1350000E-06  0.1350000E-06  0.1350000E-06  0.1350000E-06  0.1350000E-06  0.1350000E-06  0.1350000E-06  0.1350000E-06
  0.4250000E-07  0.4250000E-07  0.4250000E-07  0.4250000E-07  0.4250000E-07  0.4250000E-07  0.4250000E-07  0.4250000E-07  0.4250000E-07  0.4250000E-07
  0.4250000E-07  0.4250000E-07  0.1350000E-06  0.1350000E-06  0.1350000E-06  0.1350000E-06  0.1350000E-06  0.1350000E-06
  0.4250000E-07  0.4250000E-07  0.4250000E-07  0.4250000E-07  0.4250000E-07  0.4250000E-07  0.4250000E-07  0.4250000E-07  0.4250000E-07  0.4250000E-07
  0.4250000E-07  0.4250000E-07  0.4250000E-07  0.4250000E-07  0.4250000E-07  0.4250000E-07  0.4250000E-07  0.4250000E-07  0.1350000E-06  0.1350000E-06
  0.1350000E-06  0.1350000E-06  0.1350000E-06  0.1350000E-06  0.1350000E-06  0.1350000E-06  0.1350000E-06  0.1350000E-06  0.1350000E-06  0.1350000E-06
  0.1350000E-06  0.1350000E-06  0.1350000E-06  0.1350000E-06  0.1350000E-06  0.1350000E-06  0.1611000E-05  0.1611000E-05  0.1611000E-05  0.1611000E-05
  0.1611000E-05  0.1611000E-05  0.1611000E-05  0.1611000E-05  0.1611000E-05  0.1611000E-05  0.1611000E-05  0.1611000E-05  0.1611000E-05  0.1611000E-05
  0.1611000E-05  0.1611000E-05  0.1611000E-05  0.1611000E-05  0.1611000E-05  0.1611000E-05  0.1611000E-05  0.1611000E-05  0.1611000E-05  0.1611000E-05
  0.1611000E-05  0.1611000E-05  0.1611000E-05  0.1611000E-05  0.1611000E-05  0.1611000E-05  0.1611000E-05  0.1611000E-05  0.1611000E-05  0.1611000E-05
  0.1611000E-05  0.1611000E-05  0.1611000E-05  0.1611000E-05  0.1611000E-05  0.1611000E-05  0.1611000E-05  0.1611000E-05  0.1350000E-06  0.1350000E-06
  0.1350000E-06  0.1350000E-06  0.1350000E-06  0.1350000E-06  0.1350000E-06  0.1350000E-06  0.1350000E-06  0.1350000E-06  0.1350000E-06  0.1350000E-06
  0.4250000E-07  0.4250000E-07  0.4250000E-07  0.4250000E-07  0.4250000E-07  0.4250000E-07  0.4250000E-07  0.4250000E-07  0.4250000E-07  0.4250000E-07
  0.4250000E-07  0.4250000E-07  0.1350000E-06  0.1350000E-06  0.1350000E-06  0.1350000E-06  0.1350000E-06  0.1350000E-06
  0.4250000E-07  0.4250000E-07  0.4250000E-07  0.4250000E-07  0.4250000E-07  0.4250000E-07  0.4250000E-07  0.4250000E-07  0.4250000E-07  0.4250000E-07
  0.4250000E-07  0.4250000E-07  0.4250000E-07  0.4250000E-07  0.4250000E-07  0.4250000E-07  0.4250000E-07  0.4250000E-07  0.1350000E-06  0.1350000E-06
  0.1350000E-06  0.1350000E-06  0.1350000E-06  0.1350000E-06  0.1350000E-06  0.1350000E-06  0.1350000E-06  0.1350000E-06  0.1350000E-06  0.1350000E-06
  0.1350000E-06  0.1350000E-06  0.1350000E-06  0.1350000E-06  0.1350000E-06  0.1350000E-06  0.1611000E-05  0.1611000E-05  0.1611000E-05  0.1611000E-05
  0.1611000E-05  0.1611000E-05  0.1611000E-05  0.1611000E-05  0.1611000E-05  0.1611000E-05  0.1611000E-05  0.1611000E-05  0.1611000E-05  0.1611000E-05
  0.1611000E-05  0.1611000E-05  0.1611000E-05  0.1611000E-05  0.1611000E-05  0.1611000E-05  0.1611000E-05  0.1611000E-05  0.1611000E-05  0.1611000E-05
  0.1611000E-05  0.1611000E-05  0.1611000E-05  0.1611000E-05  0.1611000E-05  0.1611000E-05  0.1611000E-05  0.1611000E-05  0.1611000E-05  0.1611000E-05
  0.1611000E-05  0.1611000E-05  0.1611000E-05  0.1611000E-05  0.1611000E-05  0.1611000E-05  0.1611000E-05  0.1611000E-05  0.1350000E-06  0.1350000E-06
  0.1350000E-06  0.1350000E-06  0.1350000E-06  0.1350000E-06  0.1350000E-06  0.1350000E-06  0.1350000E-06  0.1350000E-06  0.1350000E-06  0.1350000E-06
  0.4250000E-07  0.4250000E-07  0.4250000E-07  0.4250000E-07  0.4250000E-07  0.4250000E-07  0.4250000E-07  0.4250000E-07  0.4250000E-07  0.4250000E-07
  0.4250000E-07  0.4250000E-07  0.1350000E-06  0.1350000E-06  0.1350000E-06  0.1350000E-06  0.1350000E-06  0.1350000E-06
  0.4250000E-07  0.4250000E-07  0.4250000E-07  0.4250000E-07  0.4250000E-07  0.4250000E-07  0.4250000E-07  0.4250000E-07  0.4250000E-07  0.4250000E-07
  0.4250000E-07  0.4250000E-07  0.4250000E-07  0.4250000E-07  0.4250000E-07  0.4250000E-07  0.4250000E-07  0.4250000E-07  0.1350000E-06  0.1350000E-06
  0.1350000E-06  0.1350000E-06  0.1350000E-06  0.1350000E-06  0.1350000E-06  0.1350000E-06  0.1350000E-06  0.1350000E-06  0.1350000E-06  0.1350000E-06
  0.1350000E-06  0.1350000E-06  0.1350000E-06  0.1350000E-06  0.1350000E-06  0.1350000E-06  0.1611000E-05  0.1611000E-05  0.1611000E-05  0.1611000E-05
  0.1611000E-05  0.1611000E-05  0.1611000E-05  0.1611000E-05  0.1611000E-05  0.1611000E-05  0.1611000E-05  0.1611000E-05  0.1611000E-05  0.1611000E-05
  0.1611000E-05  0.1611000E-05  0.1611000E-05  0.1611000E-05  0.1611000E-05  0.1611000E-05  0.1611000E-05  0.1611000E-05  0.1611000E-05  0.1611000E-05
  0.1611000E-05  0.1611000E-05  0.1611000E-05  0.1611000E-05  0.1611000E-05  0.1611000E-05  0.1611000E-05  0.1611000E-05  0.1611000E-05  0.1611000E-05
  0.1611000E-05  0.1611000E-05  0.1611000E-05  0.1611000E-05  0.1611000E-05  0.1611000E-05  0.1611000E-05  0.1611000E-05  0.1350000E-06  0.1350000E-06
  0.1350000E-06  0.1350000E-06  0.1350000E-06  0.1350000E-06  0.1350000E-06  0.1350000E-06  0.1350000E-06  0.1350000E-06  0.1350000E-06  0.1350000E-06
  0.4250000E-07  0.4250000E-07  0.4250000E-07  0.4250000E-07  0.4250000E-07  0.4250000E-07  0.4250000E-07  0.4250000E-07  0.4250000E-07  0.4250000E-07
  0.4250000E-07  0.4250000E-07  0.1350000E-06  0.1350000E-06  0.1350000E-06  0.1350000E-06  0.1350000E-06  0.1350000E-06
  0.4250000E-07  0.4250000E-07  0.4250000E-07  0.4250000E-07  0.4250000E-07  0.4250000E-07  0.4250000E-07  0.4250000E-07  0.4250000E-07  0.4250000E-07
  0.4250000E-07  0.4250000E-07  0.4250000E-07  0.4250000E-07  0.4250000E-07  0.4250000E-07  0.4250000E-07  0.4250000E-07  0.1350000E-06  0.1350000E-06
  0.1350000E-06  0.1350000E-06  0.1350000E-06  0.1350000E-06  0.1350000E-06  0.1350000E-06  0.1350000E-06  0.1350000E-06  0.1350000E-06  0.1350000E-06
  0.1350000E-06  0.1350000E-06  0.1350000E-06  0.1350000E-06  0.1350000E-06  0.1350000E-06  0.1611000E-05  0.1611000E-05  0.1611000E-05  0.1611000E-05
  0.1611000E-05  0.1611000E-05  0.1611000E-05  0.1611000E-05  0.1611000E-05  0.1611000E-05  0.1611000E-05  0.1611000E-05  0.1611000E-05  0.1611000E-05
  0.1611000E-05  0.1611000E-05  0.1611000E-05  0.1611000E-05  0.1611000E-05  0.1611000E-05  0.1611000E-05  0.1611000E-05  0.1611000E-05  0.1611000E-05
  0.1611000E-05  0.1611000E-05  0.1611000E-05  0.1611000E-05  0.1611000E-05  0.1611000E-05  0.1611000E-05  0.1611000E-05  0.1611000E-05  0.1611000E-05
  0.1611000E-05  0.1611000E-05  0.1611000E-05  0.1611000E-05  0.1611000E-05  0.1611000E-05  0.1611000E-05  0.1611000E-05  0.1350000E-06  0.1350000E-06
  0.1350000E-06  0.1350000E-06  0.1350000E-06  0.1350000E-06  0.1350000E-06  0.1350000E-06  0.1350000E-06  0.1350000E-06  0.1350000E-06  0.1350000E-06
  0.4250000E-07  0.4250000E-07  0.4250000E-07  0.4250000E-07  0.4250000E-07  0.4250000E-07  0.4250000E-07  0.4250000E-07  0.4250000E-07  0.4250000E-07
  0.4250000E-07  0.4250000E-07  0.1350000E-06  0.1350000E-06  0.1350000E-06  0.1350000E-06  0.1350000E-06  0.1350000E-06
  0.4250000E-07  0.4250000E-07  0.4250000E-07  0.4250000E-07  0.4250000E-07  0.4250000E-07  0.4250000E-07  0.4250000E-07  0.4250000E-07  0.4250000E-07
  0.4250000E-07  0.4250000E-07  0.1350000E-06  0.1350000E-06  0.1350000E-06  0.1350000E-06  0.1350000E-06  0.1350000E-06  0.1350000E-06  0.1350000E-06
  0.1350000E-06  0.1350000E-06  0.1350000E-06  0.1350000E-06  0.1611000E-05  0.1611000E-05  0.1611000E-05  0.1611000E-05  0.1611000E-05  0.1611000E-05
  0.1611000E-05  0.1611000E-05  0.1611000E-05  0.1611000E-05  0.1611000E-05  0.1611000E-05  0.4306000E-05  0.4306000E-05  0.4306000E-05  0.4306000E-05
  0.4306000E-05  0.4306000E-05  0.4306000E-05  0.4306000E-05  0.4306000E-05  0.4306000E-05  0.4306000E-05  0.4306000E-05  0.4306000E-05  0.4306000E-05
  0.4306000E-05  0.4306000E-05  0.4306000E-05  0.4306000E-05  0.1200000E-04  0.1200000E-04  0.1200000E-04  0.1200000E-04  0.1200000E-04  0.1200000E-04
  0.4306000E-05  0.4306000E-05  0.4306000E-05  0.4306000E-05  0.4306000E-05  0.4306000E-05  0.4306000E-05  0.4306000E-05  0.4306000E-05  0.4306000E-05
  0.4306000E-05  0.4306000E-05  0.1611000E-05  0.1611000E-05  0.1611000E-05  0.1611000E-05  0.1611000E-05  0.1611000E-05  0.1611000E-05  0.1611000E-05
  0.1611000E-05  0.1611000E-05  0.1611000E-05  0.1611000E-05  0.1350000E-06  0.1350000E-06  0.1350000E-06  0.1350000E-06  0.1350000E-06  0.1350000E-06
  0.1350000E-06  0.1350000E-06  0.1350000E-06  0.1350000E-06  0.1350000E-06  0.1350000E-06  0.1350000E-06  0.1350000E-06  0.1350000E-06  0.1350000E-06
  0.1350000E-06  0.1350000E-06  0.1350000E-06  0.1350000E-06  0.1350000E-06  0.1350000E-06  0.1350000E-06  0.1350000E-06
  0.4250000E-07  0.4250000E-07  0.4250000E-07  0.4250000E-07  0.4250000E-07  0.4250000E-07  0.4250000E-07  0.4250000E-07  0.4250000E-07  0.4250000E-07
  0.4250000E-07  0.4250000E-07  0.1350000E-06  0.1350000E-06  0.1350000E-06  0.1350000E-06  0.1350000E-06  0.1350000E-06  0.1350000E-06  0.1350000E-06
  0.1350000E-06  0.1350000E-06  0.1350000E-06  0.1350000E-06  0.1611000E-05  0.1611000E-05  0.1611000E-05  0.1611000E-05  0.1611000E-05  0.1611000E-05
  0.1611000E-05  0.1611000E-05  0.1611000E-05  0.1611000E-05  0.1611000E-05  0.1611000E-05  0.4306000E-05  0.4306000E-05  0.4306000E-05  0.4306000E-05
  0.4306000E-05  0.4306000E-05  0.4306000E-05  0.4306000E-05  0.4306000E-05  0.4306000E-05  0.4306000E-05  0.4306000E-05  0.4306000E-05  0.4306000E-05
  0.4306000E-05  0.4306000E-05  0.4306000E-05  0.4306000E-05  0.1200000E-04  0.1200000E-04  0.1200000E-04  0.1200000E-04  0.1200000E-04  0.1200000E-04
  0.4306000E-05  0.4306000E-05  0.4306000E-05  0.4306000E-05  0.4306000E-05  0.4306000E-05  0.4306000E-05  0.4306000E-05  0.4306000E-05  0.4306000E-05
  0.4306000E-05  0.4306000E-05  0.1611000E-05  0.1611000E-05  0.1611000E-05  0.1611000E-05  0.1611000E-05  0.1611000E-05  0.1611000E-05  0.1611000E-05
  0.1611000E-05  0.1611000E-05  0.1611000E-05  0.1611000E-05  0.1350000E-06  0.1350000E-06  0.1350000E-06  0.1350000E-06  0.1350000E-06  0.1350000E-06
  0.1350000E-06  0.1350000E-06  0.1350000E-06  0.1350000E-06  0.1350000E-06  0.1350000E-06  0.1350000E-06  0.1350000E-06  0.1350000E-06  0.1350000E-06
  0.1350000E-06  0.1350000E-06  0.1350000E-06  0.1350000E-06  0.1350000E-06  0.1350000E-06  0.1350000E-06  0.1350000E-06
  0.4250000E-07  0.4250000E-07  0.4250000E-07  0.4250000E-07  0.4250000E-07  0.4250000E-07  0.4250000E-07  0.4250000E-07  0.4250000E-07  0.4250000E-07
  0.4250000E-07  0.4250000E-07  0.1350000E-06  0.1350000E-06  0.1350000E-06  0.1350000E-06  0.1350000E-06  0.1350000E-06  0.1350000E-06  0.1350000E-06
  0.1350000E-06  0.1350000E-06  0.1350000E-06  0.1350000E-06  0.1611000E-05  0.1611000E-05  0.1611000E-05  0.1611000E-05  0.1611000E-05  0.1611000E-05
  0.1611000E-05  0.1611000E-05  0.1611000E-05  0.1611000E-05  0.1611000E-05  0.1611000E-05  0.4306000E-05  0.4306000E-05  0.4306000E-05  0.4306000E-05
  0.4306000E-05  0.4306000E-05  0.4306000E-05  0.4306000E-05  0.4306000E-05  0.4306000E-05  0.4306000E-05  0.4306000E-05  0.4306000E-05  0.4306000E-05
  0.4306000E-05  0.4306000E-05  0.4306000E-05  0.4306000E-05  0.1200000E-04  0.1200000E-04  0.1200000E-04  0.1200000E-04  0.1200000E-04  0.1200000E-04
  0.4306000E-05  0.4306000E-05  0.4306000E-05  0.4306000E-05  0.4306000E-05  0.4306000E-05  0.4306000E-05  0.4306000E-05  0.4306000E-05  0.4306000E-05
  0.4306000E-05  0.4306000E-05  0.1611000E-05  0.1611000E-05  0.1611000E-05  0.1611000E-05  0.1611000E-05  0.1611000E-05  0.1611000E-05  0.1611000E-05
  0.1611000E-05  0.1611000E-05  0.1611000E-05  0.1611000E-05  0.1350000E-06  0.1350000E-06  0.1350000E-06  0.1350000E-06  0.1350000E-06  0.1350000E-06
  0.1350000E-06  0.1350000E-06  0.1350000E-06  0.1350000E-06  0.1350000E-06  0.1350000E-06  0.1350000E-06  0.1350000E-06  0.1350000E-06  0.1350000E-06
  0.1350000E-06  0.1350000E-06  0.1350000E-06  0.1350000E-06  0.1350000E-06  0.1350000E-06  0.1350000E-06  0.1350000E-06
  0.4250000E-07  0.4250000E-07  0.4250000E-07  0.4250000E-07  0.4250000E-07  0.4250000E-07  0.4250000E-07  0.4250000E-07  0.4250000E-07  0.4250000E-07
  0.4250000E-07  0.4250000E-07  0.1350000E-06  0.1350000E-06  0.1350000E-06  0.1350000E-06  0.1350000E-06  0.1350000E-06  0.1350000E-06  0.1350000E-06
  0.1350000E-06  0.1350000E-06  0.1350000E-06  0.1350000E-06  0.1611000E-05  0.1611000E-05  0.1611000E-05  0.1611000E-05  0.1611000E-05  0.1611000E-05
  0.1611000E-05  0.1611000E-05  0.1611000E-05  0.1611000E-05  0.1611000E-05  0.1611000E-05  0.4306000E-05  0.4306000E-05  0.4306000E-05  0.4306000E-05
  0.4306000E-05  0.4306000E-05  0.4306000E-05  0.4306000E-05  0.4306000E-05  0.4306000E-05  0.4306000E-05  0.4306000E-05  0.4306000E-05  0.4306000E-05
  0.4306000E-05  0.4306000E-05  0.4306000E-05  0.4306000E-05  0.1200000E-04  0.1200000E-04  0.1200000E-04  0.1200000E-04  0.1200000E-04  0.1200000E-04
  0.4306000E-05  0.4306000E-05  0.4306000E-05  0.4306000E-05  0.4306000E-05  0.4306000E-05  0.4306000E-05  0.4306000E-05  0.4306000E-05  0.4306000E-05
  0.4306000E-05  0.4306000E-05  0.1611000E-05  0.1611000E-05  0.1611000E-05  0.1611000E-05  0.1611000E-05  0.1611000E-05  0.1611000E-05  0.1611000E-05
  0.1611000E-05  0.1611000E-05  0.1611000E-05  0.1611000E-05  0.1350000E-06  0.1350000E-06  0.1350000E-06  0.1350000E-06  0.1350000E-06  0.1350000E-06
  0.1350000E-06  0.1350000E-06  0.1350000E-06  0.1350000E-06  0.1350000E-06  0.1350000E-06  0.1350000E-06  0.1350000E-06  0.1350000E-06  0.1350000E-06
  0.1350000E-06  0.1350000E-06  0.1350000E-06  0.1350000E-06  0.1350000E-06  0.1350000E-06  0.1350000E-06  0.1350000E-06
  0.4250000E-07  0.4250000E-07  0.4250000E-07  0.4250000E-07  0.4250000E-07  0.4250000E-07  0.4250000E-07  0.4250000E-07  0.4250000E-07  0.4250000E-07
  0.4250000E-07  0.4250000E-07  0.1350000E-06  0.1350000E-06  0.1350000E-06  0.1350000E-06  0.1350000E-06  0.1350000E-06  0.1350000E-06  0.1350000E-06
  0.1350000E-06  0.1350000E-06  0.1350000E-06  0.1350000E-06  0.1611000E-05  0.1611000E-05  0.1611000E-05  0.1611000E-05  0.1611000E-05  0.1611000E-05
  0.1611000E-05  0.1611000E-05  0.1611000E-05  0.1611000E-05  0.1611000E-05  0.1611000E-05  0.4306000E-05  0.4306000E-05  0.4306000E-05  0.4306000E-05
  0.4306000E-05  0.4306000E-05  0.4306000E-05  0.4306000E-05  0.4306000E-05  0.4306000E-05  0.4306000E-05  0.4306000E-05  0.4306000E-05  0.4306000E-05
  0.4306000E-05  0.4306000E-05  0.4306000E-05  0.4306000E-05  0.1200000E-04  0.1200000E-04  0.1200000E-04  0.1200000E-04  0.1200000E-04  0.1200000E-04
  0.4306000E-05  0.4306000E-05  0.4306000E-05  0.4306000E-05  0.4306000E-05  0.4306000E-05  0.4306000E-05  0.4306000E-05  0.4306000E-05  0.4306000E-05
  0.4306000E-05  0.4306000E-05  0.1611000E-05  0.1611000E-05  0.1611000E-05  0.1611000E-05  0.1611000E-05  0.1611000E-05  0.1611000E-05  0.1611000E-05
  0.1611000E-05  0.1611000E-05  0.1611000E-05  0.1611000E-05  0.1350000E-06  0.1350000E-06  0.1350000E-06  0.1350000E-06  0.1350000E-06  0.1350000E-06
  0.1350000E-06  0.1350000E-06  0.1350000E-06  0.1350000E-06  0.1350000E-06  0.1350000E-06  0.1350000E-06  0.1350000E-06  0.1350000E-06  0.1350000E-06
  0.1350000E-06  0.1350000E-06  0.1350000E-06  0.1350000E-06  0.1350000E-06  0.1350000E-06  0.1350000E-06  0.1350000E-06
  0.1350000E-06  0.1350000E-06  0.1350000E-06  0.1350000E-06  0.1350000E-06  0.1350000E-06  0.1350000E-06  0.1350000E-06  0.1350000E-06  0.1350000E-06
  0.1350000E-06  0.1350000E-06  0.1350000E-06  0.1350000E-06  0.1350000E-06  0.1350000E-06  0.1350000E-06  0.1350000E-06  0.1611000E-05  0.1611000E-05
  0.1611000E-05  0.1611000E-05  0.1611000E-05  0.1611000E-05  0.1611000E-05  0.1611000E-05  0.1611000E-05  0.1611000E-05  0.1611000E-05  0.1611000E-05
  0.4306000E-05  0.4306000E-05  0.4306000E-05  0.4306000E-05  0.4306000E-05  0.4306000E-05  0.4306000E-05  0.4306000E-05  0.4306000E-05  0.4306000E-05
  0.4306000E-05  0.4306000E-05  0.1200000E-04  0.1200000E-04  0.1200000E-04  0.1200000E-04  0.1200000E-04  0.1200000E-04  0.1200000E-04  0.1200000E-04
  0.1200000E-04  0.1200000E-04  0.1200000E-04  0.1200000E-04  0.1200000E-04  0.1200000E-04  0.1200000E-04  0.1200000E-04  0.1200000E-04  0.1200000E-04
  0.1200000E-04  0.1200000E-04  0.1200000E-04  0.1200000E-04  0.1200000E-04  0.1200000E-04  0.1200000E-04  0.1200000E-04  0.1200000E-04  0.1200000E-04
  0.1200000E-04  0.1200000E-04  0.1200000E-04  0.1200000E-04  0.1200000E-04  0.1200000E-04  0.1200000E-04  0.1200000E-04  0.1200000E-04  0.1200000E-04
  0.1200000E-04  0.1200000E-04  0.1200000E-04  0.1200000E-04  0.4306000E-05  0.4306000E-05  0.4306000E-05  0.4306000E-05  0.4306000E-05  0.4306000E-05
  0.4306000E-05  0.4306000E-05  0.4306000E-05  0.4306000E-05  0.4306000E-05  0.4306000E-05  0.1611000E-05  0.1611000E-05  0.1611000E-05  0.1611000E-05
  0.1611000E-05  0.1611000E-05  0.1611000E-05  0.1611000E-05  0.1611000E-05  0.1611000E-05  0.1611000E-05  0.1611000E-05
  0.1350000E-06  0.1350000E-06  0.1350000E-06  0.1350000E-06  0.1350000E-06  0.1350000E-06  0.1350000E-06  0.1350000E-06  0.1350000E-06  0.1350000E-06
  0.1350000E-06  0.1350000E-06  0.1350000E-06  0.1350000E-06  0.1350000E-06  0.1350000E-06  0.1350000E-06  0.1350000E-06  0.1611000E-05  0.1611000E-05
  0.1611000E-05  0.1611000E-05  0.1611000E-05  0.1611000E-05  0.1611000E-05  0.1611000E-05  0.1611000E-05  0.1611000E-05  0.1611000E-05  0.1611000E-05
  0.4306000E-05  0.4306000E-05  0.4306000E-05  0.4306000E-05  0.4306000E-05  0.4306000E-05  0.4306000E-05  0.4306000E-05  0.4306000E-05  0.4306000E-05
  0.4306000E-05  0.4306000E-05  0.1200000E-04  0.1200000E-04  0.1200000E-04  0.1200000E-04  0.1200000E-04  0.1200000E-04  0.1200000E-04  0.1200000E-04
  0.1200000E-04  0.1200000E-04  0.1200000E-04  0.1200000E-04  0.1200000E-04  0.1200000E-04  0.1200000E-04  0.1200000E-04  0.1200000E-04  0.1200000E-04
  0.1200000E-04  0.1200000E-04  0.1200000E-04  0.1200000E-04  0.1200000E-04  0.1200000E-04  0.1200000E-04  0.1200000E-04  0.1200000E-04  0.1200000E-04
  0.1200000E-04  0.1200000E-04  0.1200000E-04  0.1200000E-04  0.1200000E-04  0.1200000E-04  0.1200000E-04  0.1200000E-04  0.1200000E-04  0.1200000E-04
  0.1200000E-04  0.1200000E-04  0.1200000E-04  0.1200000E-04  0.4306000E-05  0.4306000E-05  0.4306000E-05  0.4306000E-05  0.4306000E-05  0.4306000E-05
  0.4306000E-05  0.4306000E-05  0.4306000E-05  0.4306000E-05  0.4306000E-05  0.4306000E-05  0.1611000E-05  0.1611000E-05  0.1611000E-05  0.1611000E-05
  0.1611000E-05  0.1611000E-05  0.1611000E-05  0.1611000E-05  0.1611000E-05  0.1611000E-05  0.1611000E-05  0.1611000E-05
  0.1350000E-06  0.1350000E-06  0.1350000E-06  0.1350000E-06  0.1350000E-06  0.1350000E-06  0.1350000E-06  0.1350000E-06  0.1350000E-06  0.1350000E-06
  0.1350000E-06  0.1350000E-06  0.1350000E-06  0.1350000E-06  0.1350000E-06  0.1350000E-06  0.1350000E-06  0.1350000E-06  0.1611000E-05  0.1611000E-05
  0.1611000E-05  0.1611000E-05  0.1611000E-05  0.1611000E-05  0.1611000E-05  0.1611000E-05  0.1611000E-05  0.1611000E-05  0.1611000E-05  0.1611000E-05
  0.4306000E-05  0.4306000E-05  0.4306000E-05  0.4306000E-05  0.4306000E-05  0.4306000E-05  0.4306000E-05  0.4306000E-05  0.4306000E-05  0.4306000E-05
  0.4306000E-05  0.4306000E-05  0.1200000E-04  0.1200000E-04  0.1200000E-04  0.1200000E-04  0.1200000E-04  0.1200000E-04  0.1200000E-04  0.1200000E-04
  0.1200000E-04  0.1200000E-04  0.1200000E-04  0.1200000E-04  0.1200000E-04  0.1200000E-04  0.1200000E-04  0.1200000E-04  0.1200000E-04  0.1200000E-04
  0.1200000E-04  0.1200000E-04  0.1200000E-04  0.1200000E-04  0.1200000E-04  0.1200000E-04  0.1200000E-04  0.1200000E-04  0.1200000E-04  0.1200000E-04
  0.1200000E-04  0.1200000E-04  0.1200000E-04  0.1200000E-04  0.1200000E-04  0.1200000E-04  0.1200000E-04  0.1200000E-04  0.1200000E-04  0.1200000E-04
  0.1200000E-04  0.1200000E-04  0.1200000E-04  0.1200000E-04  0.4306000E-05  0.4306000E-05  0.4306000E-05  0.4306000E-05  0.4306000E-05  0.4306000E-05
  0.4306000E-05  0.4306000E-05  0.4306000E-05  0.4306000E-05  0.4306000E-05  0.4306000E-05  0.1611000E-05  0.1611000E-05  0.1611000E-05  0.1611000E-05
  0.1611000E-05  0.1611000E-05  0.1611000E-05  0.1611000E-05  0.1611000E-05  0.1611000E-05  0.1611000E-05  0.1611000E-05
  0.1350000E-06  0.1350000E-06  0.1350000E-06  0.1350000E-06  0.1350000E-06  0.1350000E-06  0.1350000E-06  0.1350000E-06  0.1350000E-06  0.1350000E-06
  0.1350000E-06  0.1350000E-06  0.1350000E-06  0.1350000E-06  0.1350000E-06  0.1350000E-06  0.1350000E-06  0.1350000E-06  0.1611000E-05  0.1611000E-05
  0.1611000E-05  0.1611000E-05  0.1611000E-05  0.1611000E-05  0.1611000E-05  0.1611000E-05  0.1611000E-05  0.1611000E-05  0.1611000E-05  0.1611000E-05
  0.4306000E-05  0.4306000E-05  0.4306000E-05  0.4306000E-05  0.4306000E-05  0.4306000E-05  0.4306000E-05  0.4306000E-05  0.4306000E-05  0.4306000E-05
  0.4306000E-05  0.4306000E-05  0.1200000E-04  0.1200000E-04  0.1200000E-04  0.1200000E-04  0.1200000E-04  0.1200000E-04  0.1200000E-04  0.1200000E-04
  0.1200000E-04  0.1200000E-04  0.1200000E-04  0.1200000E-04  0.1200000E-04  0.1200000E-04  0.1200000E-04  0.1200000E-04  0.1200000E-04  0.1200000E-04
  0.1200000E-04  0.1200000E-04  0.1200000E-04  0.1200000E-04  0.1200000E-04  0.1200000E-04  0.1200000E-04  0.1200000E-04  0.1200000E-04  0.1200000E-04
  0.1200000E-04  0.1200000E-04  0.1200000E-04  0.1200000E-04  0.1200000E-04  0.1200000E-04  0.1200000E-04  0.1200000E-04  0.1200000E-04  0.1200000E-04
  0.1200000E-04  0.1200000E-04  0.1200000E-04  0.1200000E-04  0.4306000E-05  0.4306000E-05  0.4306000E-05  0.4306000E-05  0.4306000E-05  0.4306000E-05
  0.4306000E-05  0.4306000E-05  0.4306000E-05  0.4306000E-05  0.4306000E-05  0.4306000E-05  0.1611000E-05  0.1611000E-05  0.1611000E-05  0.1611000E-05
  0.1611000E-05  0.1611000E-05  0.1611000E-05  0.1611000E-05  0.1611000E-05  0.1611000E-05  0.1611000E-05  0.1611000E-05
  0.1350000E-06  0.1350000E-06  0.1350000E-06  0.1350000E-06  0.1350000E-06  0.1350000E-06  0.1350000E-06  0.1350000E-06  0.1350000E-06  0.1350000E-06
  0.1350000E-06  0.1350000E-06  0.1350000E-06  0.1350000E-06  0.1350000E-06  0.1350000E-06  0.1350000E-06  0.1350000E-06  0.1611000E-05  0.1611000E-05
  0.1611000E-05  0.1611000E-05  0.1611000E-05  0.1611000E-05  0.1611000E-05  0.1611000E-05  0.1611000E-05  0.1611000E-05  0.1611000E-05  0.1611000E-05
  0.4306000E-05  0.4306000E-05  0.4306000E-05  0.4306000E-05  0.4306000E-05  0.4306000E-05  0.4306000E-05  0.4306000E-05  0.4306000E-05  0.4306000E-05
  0.4306000E-05  0.4306000E-05  0.1200000E-04  0.1200000E-04  0.1200000E-04  0.1200000E-04  0.1200000E-04  0.1200000E-04  0.1200000E-04  0.1200000E-04
  0.1200000E-04  0.1200000E-04  0.1200000E-04  0.1200000E-04  0.1200000E-04  0.1200000E-04  0.1200000E-04  0.1200000E-04  0.1200000E-04  0.1200000E-04
  0.1200000E-04  0.1200000E-04  0.1200000E-04  0.1200000E-04  0.1200000E-04  0.1200000E-04  0.1200000E-04  0.1200000E-04  0.1200000E-04  0.1200000E-04
  0.1200000E-04  0.1200000E-04  0.1200000E-04  0.1200000E-04  0.1200000E-04  0.1200000E-04  0.1200000E-04  0.1200000E-04  0.1200000E-04  0.1200000E-04
  0.1200000E-04  0.1200000E-04  0.1200000E-04  0.1200000E-04  0.4306000E-05  0.4306000E-05  0.4306000E-05  0.4306000E-05  0.4306000E-05  0.4306000E-05
  0.4306000E-05  0.4306000E-05  0.4306000E-05  0.4306000E-05  0.4306000E-05  0.4306000E-05  0.1611000E-05  0.1611000E-05  0.1611000E-05  0.1611000E-05
  0.1611000E-05  0.1611000E-05  0.1611000E-05  0.1611000E-05  0.1611000E-05  0.1611000E-05  0.1611000E-05  0.1611000E-05
  0.1611000E-05  0.1611000E-05  0.1611000E-05  0.1611000E-05  0.1611000E-05  0.1611000E-05  0.1611000E-05  0.1611000E-05  0.1611000E-05  0.1611000E-05
  0.1611000E-05  0.1611000E-05  0.1611000E-05  0.1611000E-05  0.1611000E-05  0.1611000E-05  0.1611000E-05  0.1611000E-05  0.1611000E-05  0.1611000E-05
  0.1611000E-05  0.1611000E-05  0.1611000E-05  0.1611000E-05  0.1611000E-05  0.1611000E-05  0.1611000E-05  0.1611000E-05  0.1611000E-05  0.1611000E-05
  0.1611000E-05  0.1611000E-05  0.1611000E-05  0.1611000E-05  0.1611000E-05  0.1611000E-05  0.1611000E-05  0.1611000E-05  0.1611000E-05  0.1611000E-05
  0.1611000E-05  0.1611000E-05  0.4306000E-05  0.4306000E-05  0.4306000E-05  0.4306000E-05  0.4306000E-05  0.4306000E-05  0.4306000E-05  0.4306000E-05
  0.4306000E-05  0.4306000E-05  0.4306000E-05  0.4306000E-05  0.1200000E-04  0.1200000E-04  0.1200000E-04  0.1200000E-04  0.1200000E-04  0.1200000E-04
  0.1200000E-04  0.1200000E-04  0.1200000E-04  0.1200000E-04  0.1200000E-04  0.1200000E-04  0.1200000E-04  0.1200000E-04  0.1200000E-04  0.1200000E-04
  0.1200000E-04  0.1200000E-04  0.1200000E-04  0.1200000E-04  0.1200000E-04  0.1200000E-04  0.1200000E-04  0.1200000E-04  0.1200000E-04  0.1200000E-04
  0.1200000E-04  0.1200000E-04  0.1200000E-04  0.1200000E-04  0.4306000E-05  0.4306000E-05  0.4306000E-05  0.4306000E-05  0.4306000E-05  0.4306000E-05
  0.4306000E-05  0.4306000E-05  0.4306000E-05  0.4306000E-05  0.4306000E-05  0.4306000E-05  0.1611000E-05  0.1611000E-05  0.1611000E-05  0.1611000E-05
  0.1611000E-05  0.1611000E-05  0.1611000E-05  0.1611000E-05  0.1611000E-05  0.1611000E-05  0.1611000E-05  0.1611000E-05
  0.1611000E-05  0.1611000E-05  0.1611000E-05  0.1611000E-05  0.1611000E-05  0.1611000E-05  0.1611000E-05  0.1611000E-05  0.1611000E-05  0.1611000E-05
  0.1611000E-05  0.1611000E-05  0.1611000E-05  0.1611000E-05  0.1611000E-05  0.1611000E-05  0.1611000E-05  0.1611000E-05  0.1611000E-05  0.1611000E-05
  0.1611000E-05  0.1611000E-05  0.1611000E-05  0.1611000E-05  0.1611000E-05  0.1611000E-05  0.1611000E-05  0.1611000E-05  0.1611000E-05  0.1611000E-05
  0.1611000E-05  0.1611000E-05  0.1611000E-05  0.1611000E-05  0.1611000E-05  0.1611000E-05  0.1611000E-05  0.1611000E-05  0.1611000E-05  0.1611000E-05
  0.1611000E-05  0.1611000E-05  0.4306000E-05  0.4306000E-05  0.4306000E-05  0.4306000E-05  0.4306000E-05  0.4306000E-05  0.4306000E-05  0.4306000E-05
  0.4306000E-05  0.4306000E-05  0.4306000E-05  0.4306000E-05  0.1200000E-04  0.1200000E-04  0.1200000E-04  0.1200000E-04  0.1200000E-04  0.1200000E-04
  0.1200000E-04  0.1200000E-04  0.1200000E-04  0.1200000E-04  0.1200000E-04  0.1200000E-04  0.1200000E-04  0.1200000E-04  0.1200000E-04  0.1200000E-04
  0.1200000E-04  0.1200000E-04  0.1200000E-04  0.1200000E-04  0.1200000E-04  0.1200000E-04  0.1200000E-04  0.1200000E-04  0.1200000E-04  0.1200000E-04
  0.1200000E-04  0.1200000E-04  0.1200000E-04  0.1200000E-04  0.4306000E-05  0.4306000E-05  0.4306000E-05  0.4306000E-05  0.4306000E-05  0.4306000E-05
  0.4306000E-05  0.4306000E-05  0.4306000E-05  0.4306000E-05  0.4306000E-05  0.4306000E-05  0.1611000E-05  0.1611000E-05  0.1611000E-05  0.1611000E-05
  0.1611000E-05  0.1611000E-05  0.1611000E-05  0.1611000E-05  0.1611000E-05  0.1611000E-05  0.1611000E-05  0.1611000E-05
  0.1611000E-05  0.1611000E-05  0.1611000E-05  0.1611000E-05  0.1611000E-05  0.1611000E-05  0.1611000E-05  0.1611000E-05  0.1611000E-05  0.1611000E-05
  0.1611000E-05  0.1611000E-05  0.1611000E-05  0.1611000E-05  0.1611000E-05  0.1611000E-05  0.1611000E-05  0.1611000E-05  0.1611000E-05  0.1611000E-05
  0.1611000E-05  0.1611000E-05  0.1611000E-05  0.1611000E-05  0.1611000E-05  0.1611000E-05  0.1611000E-05  0.1611000E-05  0.1611000E-05  0.1611000E-05
  0.1611000E-05  0.1611000E-05  0.1611000E-05  0.1611000E-05  0.1611000E-05  0.1611000E-05  0.1611000E-05  0.1611000E-05  0.1611000E-05  0.1611000E-05
  0.1611000E-05  0.1611000E-05  0.4306000E-05  0.4306000E-05  0.4306000E-05  0.4306000E-05  0.4306000E-05  0.4306000E-05  0.4306000E-05  0.4306000E-05
  0.4306000E-05  0.4306000E-05  0.4306000E-05  0.4306000E-05  0.1200000E-04  0.1200000E-04  0.1200000E-04  0.1200000E-04  0.1200000E-04  0.1200000E-04
  0.1200000E-04  0.1200000E-04  0.1200000E-04  0.1200000E-04  0.1200000E-04  0.1200000E-04  0.1200000E-04  0.1200000E-04  0.1200000E-04  0.1200000E-04
  0.1200000E-04  0.1200000E-04  0.1200000E-04  0.1200000E-04  0.1200000E-04  0.1200000E-04  0.1200000E-04  0.1200000E-04  0.1200000E-04  0.1200000E-04
  0.1200000E-04  0.1200000E-04  0.1200000E-04  0.1200000E-04  0.4306000E-05  0.4306000E-05  0.4306000E-05  0.4306000E-05  0.4306000E-05  0.4306000E-05
  0.4306000E-05  0.4306000E-05  0.4306000E-05  0.4306000E-05  0.4306000E-05  0.4306000E-05  0.1611000E-05  0.1611000E-05  0.1611000E-05  0.1611000E-05
  0.1611000E-05  0.1611000E-05  0.1611000E-05  0.1611000E-05  0.1611000E-05  0.1611000E-05  0.1611000E-05  0.1611000E-05
  0.1611000E-05  0.1611000E-05  0.1611000E-05  0.1611000E-05  0.1611000E-05  0.1611000E-05  0.1611000E-05  0.1611000E-05  0.1611000E-05  0.1611000E-05
  0.1611000E-05  0.1611000E-05  0.1611000E-05  0.1611000E-05  0.1611000E-05  0.1611000E-05  0.1611000E-05  0.1611000E-05  0.1611000E-05  0.1611000E-05