# SMS8 input file, prepared by MF5to6 on 9/26/2016 at 10:29:24.

BEGIN Options
  PRINT_OPTION  SUMMARY
  COMPLEXITY  SIMPLE
END Options

BEGIN Nonlinear
  OUTER_HCLOSE   0.1000000E-04
  OUTER_MAXIMUM  12625
  UNDER_RELAXATION  NONE
  UNDER_RELAXATION_THETA    0.000000    
  UNDER_RELAXATION_KAPPA    0.000000    
  UNDER_RELAXATION_GAMMA    0.000000    
  UNDER_RELAXATION_MOMENTUM    0.000000    
END Nonlinear

BEGIN LINEAR
  INNER_MAXIMUM  10
  INNER_HCLOSE   0.1000000E-05
  INNER_RCLOSE   0.1000000E-02
  LINEAR_ACCELERATION  CG
  RELAXATION_FACTOR    1.000000    
  NUMBER_ORTHOGONALIZATIONS  2
  REORDERING_METHOD  NONE
END LINEAR
