# IC8 input file, prepared by MF5to6 on 9/26/2016 at 10:29:24.

BEGIN Options
END Options

BEGIN GRIDDATA
  STRT LAYERED
    INTERNAL  FACTOR    1.000000      IPRN  9
   12.00000       9.500000       9.500000       9.500000       9.500000       9.500000       9.500000       9.500000       9.500000       9.500000    
   9.500000       9.500000       9.500000       9.500000       9.500000       9.500000       9.500000       9.500000       9.500000       9.500000    
   9.500000       9.500000       9.500000       9.500000       9.500000       9.500000       9.500000       9.500000       9.500000       9.500000    
   9.500000       9.500000       9.500000       9.500000       9.500000       9.500000       9.500000       9.500000       9.500000       9.500000    
   9.500000       9.500000       9.500000       9.500000       9.500000       9.500000       9.500000       9.500000       9.500000       9.500000    
   9.500000       9.500000       9.500000       9.500000       9.500000       9.500000       9.500000       9.500000       9.500000       9.500000    
   9.500000       9.500000       9.500000       9.500000       9.500000       9.500000       9.500000       9.500000       9.500000       9.500000    
   9.500000       9.500000       9.500000       9.500000       9.500000       9.500000       9.500000       9.500000       9.500000       9.500000    
   9.500000       9.500000       9.500000       9.500000       9.500000       9.500000       9.500000       9.500000       9.500000       9.500000    
   9.500000       9.500000       9.500000       9.500000       9.500000       9.500000       9.500000       9.500000       9.500000       9.500000    
   9.500000       9.500000       9.500000       9.500000       9.500000       9.500000       9.500000       8.000000    
   12.00000       9.500000       9.500000       9.500000       9.500000       9.500000       9.500000       9.500000       9.500000       9.500000    
   9.500000       9.500000       9.500000       9.500000       9.500000       9.500000       9.500000       9.500000       9.500000       9.500000    
   9.500000       9.500000       9.500000       9.500000       9.500000       9.500000       9.500000       9.500000       9.500000       9.500000    
   9.500000       9.500000       9.500000       9.500000       9.500000       9.500000       9.500000       9.500000       9.500000       9.500000    
   9.500000       9.500000       9.500000       9.500000       9.500000       9.500000       9.500000       9.500000       9.500000       9.500000    
   9.500000       9.500000       9.500000       9.500000       9.500000       9.500000       9.500000       9.500000       9.500000       9.500000    
   9.500000       9.500000       9.500000       9.500000       9.500000       9.500000       9.500000       9.500000       9.500000       9.500000    
   9.500000       9.500000       9.500000       9.500000       9.500000       9.500000       9.500000       9.500000       9.500000       9.500000    
   9.500000       9.500000       9.500000       9.500000       9.500000       9.500000       9.500000       9.500000       9.500000       9.500000    
   9.500000       9.500000       9.500000       9.500000       9.500000       9.500000       9.500000       9.500000       9.500000       9.500000    
   9.500000       9.500000       9.500000       9.500000       9.500000       9.500000       9.500000       8.000000    
   12.00000       9.500000       9.500000       9.500000       9.500000       9.500000       9.500000       9.500000       9.500000       9.500000    
   9.500000       9.500000       9.500000       9.500000       9.500000       9.500000       9.500000       9.500000       9.500000       9.500000    
   9.500000       9.500000       9.500000       9.500000       9.500000       9.500000       9.500000       9.500000       9.500000       9.500000    
   9.500000       9.500000       9.500000       9.500000       9.500000       9.500000       9.500000       9.500000       9.500000       9.500000    
   9.500000       9.500000       9.500000       9.500000       9.500000       9.500000       9.500000       9.500000       9.500000       9.500000    
   9.500000       9.500000       9.500000       9.500000       9.500000       9.500000       9.500000       9.500000       9.500000       9.500000    
   9.500000       9.500000       9.500000       9.500000       9.500000       9.500000       9.500000       9.500000       9.500000       9.500000    
   9.500000       9.500000       9.500000       9.500000       9.500000       9.500000       9.500000       9.500000       9.500000       9.500000    
   9.500000       9.500000       9.500000       9.500000       9.500000       9.500000       9.500000       9.500000       9.500000       9.500000    
   9.500000       9.500000       9.500000       9.500000       9.500000       9.500000       9.500000       9.500000       9.500000       9.500000    
   9.500000       9.500000       9.500000       9.500000       9.500000       9.500000       9.500000       8.000000    
   12.00000       9.500000       9.500000       9.500000       9.500000       9.500000       9.500000       9.500000       9.500000       9.500000    
   9.500000       9.500000       9.500000       9.500000       9.500000       9.500000       9.500000       9.500000       9.500000       9.500000    
   9.500000       9.500000       9.500000       9.500000       9.500000       9.500000       9.500000       9.500000       9.500000       9.500000    
   9.500000       9.500000       9.500000       9.500000       9.500000       9.500000       9.500000       9.500000       9.500000       9.500000    
   9.500000       9.500000       9.500000       9.500000       9.500000       9.500000       9.500000       9.500000       9.500000       9.500000    
   9.500000       9.500000       9.500000       9.500000       9.500000       9.500000       9.500000       9.500000       9.500000       9.500000    
   9.500000       9.500000       9.500000       9.500000       9.500000       9.500000       9.500000       9.500000       9.500000       9.500000    
   9.500000       9.500000       9.500000       9.500000       9.500000       9.500000       9.500000       9.500000       9.500000       9.500000    
   9.500000       9.500000       9.500000       9.500000       9.500000       9.500000       9.500000       9.500000       9.500000       9.500000    
   9.500000       9.500000       9.500000       9.500000       9.500000       9.500000       9.500000       9.500000       9.500000       9.500000    
   9.500000       9.500000       9.500000       9.500000       9.500000       9.500000       9.500000       8.000000    
   12.00000       9.500000       9.500000       9.500000       9.500000       9.500000       9.500000       9.500000       9.500000       9.500000    
   9.500000       9.500000       9.500000       9.500000       9.500000       9.500000       9.500000       9.500000       9.500000       9.500000    
   9.500000       9.500000       9.500000       9.500000       9.500000       9.500000       9.500000       9.500000       9.500000       9.500000    
   9.500000       9.500000       9.500000       9.500000       9.500000       9.500000       9.500000       9.500000       9.500000       9.500000    
   9.500000       9.500000       9.500000       9.500000       9.500000       9.500000       9.500000       9.500000       9.500000       9.500000    
   9.500000       9.500000       9.500000       9.500000       9.500000       9.500000       9.500000       9.500000       9.500000       9.500000    
   9.500000       9.500000       9.500000       9.500000       9.500000       9.500000       9.500000       9.500000       9.500000       9.500000    
   9.500000       9.500000       9.500000       9.500000       9.500000       9.500000       9.500000       9.500000       9.500000       9.500000    
   9.500000       9.500000       9.500000       9.500000       9.500000       9.500000       9.500000       9.500000       9.500000       9.500000    
   9.500000       9.500000       9.500000       9.500000       9.500000       9.500000       9.500000       9.500000       9.500000       9.500000    
   9.500000       9.500000       9.500000       9.500000       9.500000       9.500000       9.500000       8.000000    
   12.00000       9.500000       9.500000       9.500000       9.500000       9.500000       9.500000       9.500000       9.500000       9.500000    
   9.500000       9.500000       9.500000       9.500000       9.500000       9.500000       9.500000       9.500000       9.500000       9.500000    
   9.500000       9.500000       9.500000       9.500000       9.500000       9.500000       9.500000       9.500000       9.500000       9.500000    
   9.500000       9.500000       9.500000       9.500000       9.500000       9.500000       9.500000       9.500000       9.500000       9.500000    
   9.500000       9.500000       9.500000       9.500000       9.500000       9.500000       9.500000       9.500000       9.500000       9.500000    
   9.500000       9.500000       9.500000       9.500000       9.500000       9.500000       9.500000       9.500000       9.500000       9.500000    
   9.500000       9.500000       9.500000       9.500000       9.500000       9.500000       9.500000       9.500000       9.500000       9.500000    
   9.500000       9.500000       9.500000       9.500000       9.500000       9.500000       9.500000       9.500000       9.500000       9.500000    
   9.500000       9.500000       9.500000       9.500000       9.500000       9.500000       9.500000       9.500000       9.500000       9.500000    
   9.500000       9.500000       9.500000       9.500000       9.500000       9.500000       9.500000       9.500000       9.500000       9.500000    
   9.500000       9.500000       9.500000       9.500000       9.500000       9.500000       9.500000       8.000000    
   12.00000       9.500000       9.500000       9.500000       9.500000       9.500000       9.500000       9.500000       9.500000       9.500000    
   9.500000       9.500000       9.500000       9.500000       9.500000       9.500000       9.500000       9.500000       9.500000       9.500000    
   9.500000       9.500000       9.500000       9.500000       9.500000       9.500000       9.500000       9.500000       9.500000       9.500000    
   9.500000       9.500000       9.500000       9.500000       9.500000       9.500000       9.500000       9.500000       9.500000       9.500000    
   9.500000       9.500000       9.500000       9.500000       9.500000       9.500000       9.500000       9.500000       9.500000       9.500000    
   9.500000       9.500000       9.500000       9.500000       9.500000       9.500000       9.500000       9.500000       9.500000       9.500000    
   9.500000       9.500000       9.500000       9.500000       9.500000       9.500000       9.500000       9.500000       9.500000       9.500000    
   9.500000       9.500000       9.500000       9.500000       9.500000       9.500000       9.500000       9.500000       9.500000       9.500000    
   9.500000       9.500000       9.500000       9.500000       9.500000       9.500000       9.500000       9.500000       9.500000       9.500000    
   9.500000       9.500000       9.500000       9.500000       9.500000       9.500000       9.500000       9.500000       9.500000       9.500000    
   9.500000       9.500000       9.500000       9.500000       9.500000       9.500000       9.500000       8.000000    
   12.00000       9.500000       9.500000       9.500000       9.500000       9.500000       9.500000       9.500000       9.500000       9.500000    
   9.500000       9.500000       9.500000       9.500000       9.500000       9.500000       9.500000       9.500000       9.500000       9.500000    
   9.500000       9.500000       9.500000       9.500000       9.500000       9.500000       9.500000       9.500000       9.500000       9.500000    
   9.500000       9.500000       9.500000       9.500000       9.500000       9.500000       9.500000       9.500000       9.500000       9.500000    
   9.500000       9.500000       9.500000       9.500000       9.500000       9.500000       9.500000       9.500000       9.500000       9.500000    
   9.500000       9.500000       9.500000       9.500000       9.500000       9.500000       9.500000       9.500000       9.500000       9.500000    
   9.500000       9.500000       9.500000       9.500000       9.500000       9.500000       9.500000       9.500000       9.500000       9.500000    
   9.500000       9.500000       9.500000       9.500000       9.500000       9.500000       9.500000       9.500000       9.500000       9.500000    
   9.500000       9.500000       9.500000       9.500000       9.500000       9.500000       9.500000       9.500000       9.500000       9.500000    
   9.500000       9.500000       9.500000       9.500000       9.500000       9.500000       9.500000       9.500000       9.500000       9.500000    
   9.500000       9.500000       9.500000       9.500000       9.500000       9.500000       9.500000       8.000000    
   12.00000       9.500000       9.500000       9.500000       9.500000       9.500000       9.500000       9.500000       9.500000       9.500000    
   9.500000       9.500000       9.500000       9.500000       9.500000       9.500000       9.500000       9.500000       9.500000       9.500000    
   9.500000       9.500000       9.500000       9.500000       9.500000       9.500000       9.500000       9.500000       9.500000       9.500000    
   9.500000       9.500000       9.500000       9.500000       9.500000       9.500000       9.500000       9.500000       9.500000       9.500000    
   9.500000       9.500000       9.500000       9.500000       9.500000       9.500000       9.500000       9.500000       9.500000       9.500000    
   9.500000       9.500000       9.500000       9.500000       9.500000       9.500000       9.500000       9.500000       9.500000       9.500000    
   9.500000       9.500000       9.500000       9.500000       9.500000       9.500000       9.500000       9.500000       9.500000       9.500000    
   9.500000       9.500000       9.500000       9.500000       9.500000       9.500000       9.500000       9.500000       9.500000       9.500000    
   9.500000       9.500000       9.500000       9.500000       9.500000       9.500000       9.500000       9.500000       9.500000       9.500000    
   9.500000       9.500000       9.500000       9.500000       9.500000       9.500000       9.500000       9.500000       9.500000       9.500000    
   9.500000       9.500000       9.500000       9.500000       9.500000       9.500000       9.500000       8.000000    
   12.00000       9.500000       9.500000       9.500000       9.500000       9.500000       9.500000       9.500000       9.500000       9.500000    
   9.500000       9.500000       9.500000       9.500000       9.500000       9.500000       9.500000       9.500000       9.500000       9.500000    
   9.500000       9.500000       9.500000       9.500000       9.500000       9.500000       9.500000       9.500000       9.500000       9.500000    
   9.500000       9.500000       9.500000       9.500000       9.500000       9.500000       9.500000       9.500000       9.500000       9.500000    
   9.500000       9.500000       9.500000       9.500000       9.500000       9.500000       9.500000       9.500000       9.500000       9.500000    
   9.500000       9.500000       9.500000       9.500000       9.500000       9.500000       9.500000       9.500000       9.500000       9.500000    
   9.500000       9.500000       9.500000       9.500000       9.500000       9.500000       9.500000       9.500000       9.500000       9.500000    
   9.500000       9.500000       9.500000       9.500000       9.500000       9.500000       9.500000       9.500000       9.500000       9.500000    
   9.500000       9.500000       9.500000       9.500000       9.500000       9.500000       9.500000       9.500000       9.500000       9.500000    
   9.500000       9.500000       9.500000       9.500000       9.500000       9.500000       9.500000       9.500000       9.500000       9.500000    
   9.500000       9.500000       9.500000       9.500000       9.500000       9.500000       9.500000       8.000000    
   12.00000       9.500000       9.500000       9.500000       9.500000       9.500000       9.500000       9.500000       9.500000       9.500000    
   9.500000       9.500000       9.500000       9.500000       9.500000       9.500000       9.500000       9.500000       9.500000       9.500000    
   9.500000       9.500000       9.500000       9.500000       9.500000       9.500000       9.500000       9.500000       9.500000       9.500000    
   9.500000       9.500000       9.500000       9.500000       9.500000       9.500000       9.500000       9.500000       9.500000       9.500000    
   9.500000       9.500000       9.500000       9.500000       9.500000       9.500000       9.500000       9.500000       9.500000       9.500000    
   9.500000       9.500000       9.500000       9.500000       9.500000       9.500000       9.500000       9.500000       9.500000       9.500000    
   9.500000       9.500000       9.500000       9.500000       9.500000       9.500000       9.500000       9.500000       9.500000       9.500000    
   9.500000       9.500000       9.500000       9.500000       9.500000       9.500000       9.500000       9.500000       9.500000       9.500000    
   9.500000       9.500000       9.500000       9.500000       9.500000       9.500000       9.500000       9.500000       9.500000       9.500000    
   9.500000       9.500000       9.500000       9.500000       9.500000       9.500000       9.500000       9.500000       9.500000       9.500000    
   9.500000       9.500000       9.500000       9.500000       9.500000       9.500000       9.500000       8.000000    
   12.00000       9.500000       9.500000       9.500000       9.500000       9.500000       9.500000       9.500000       9.500000       9.500000    
   9.500000       9.500000       9.500000       9.500000       9.500000       9.500000       9.500000       9.500000       9.500000       9.500000    
   9.500000       9.500000       9.500000       9.500000       9.500000       9.500000       9.500000       9.500000       9.500000       9.500000    
   9.500000       9.500000       9.500000       9.500000       9.500000       9.500000       9.500000       9.500000       9.500000       9.500000    
   9.500000       9.500000       9.500000       9.500000       9.500000       9.500000       9.500000       9.500000       9.500000       9.500000    
   9.500000       9.500000       9.500000       9.500000       9.500000       9.500000       9.500000       9.500000       9.500000       9.500000    
   9.500000       9.500000       9.500000       9.500000       9.500000       9.500000       9.500000       9.500000       9.500000       9.500000    
   9.500000       9.500000       9.500000       9.500000       9.500000       9.500000       9.500000       9.500000       9.500000       9.500000    
   9.500000       9.500000       9.500000       9.500000       9.500000       9.500000       9.500000       9.500000       9.500000       9.500000    
   9.500000       9.500000       9.500000       9.500000       9.500000       9.500000       9.500000       9.500000       9.500000       9.500000    
   9.500000       9.500000       9.500000       9.500000       9.500000       9.500000       9.500000       8.000000    
   12.00000       9.500000       9.500000       9.500000       9.500000       9.500000       9.500000       9.500000       9.500000       9.500000    
   9.500000       9.500000       9.500000       9.500000       9.500000       9.500000       9.500000       9.500000       9.500000       9.500000    
   9.500000       9.500000       9.500000       9.500000       9.500000       9.500000       9.500000       9.500000       9.500000       9.500000    
   9.500000       9.500000       9.500000       9.500000       9.500000       9.500000       9.500000       9.500000       9.500000       9.500000    
   9.500000       9.500000       9.500000       9.500000       9.500000       9.500000       9.500000       9.500000       9.500000       9.500000    
   9.500000       9.500000       9.500000       9.500000       9.500000       9.500000       9.500000       9.500000       9.500000       9.500000    
   9.500000       9.500000       9.500000       9.500000       9.500000       9.500000       9.500000       9.500000       9.500000       9.500000    
   9.500000       9.500000       9.500000       9.500000       9.500000       9.500000       9.500000       9.500000       9.500000       9.500000    
   9.500000       9.500000       9.500000       9.500000       9.500000       9.500000       9.500000       9.500000       9.500000       9.500000    
   9.500000       9.500000       9.500000       9.500000       9.500000       9.500000       9.500000       9.500000       9.500000       9.500000    
   9.500000       9.500000       9.500000       9.500000       9.500000       9.500000       9.500000       8.000000    
   12.00000       9.500000       9.500000       9.500000       9.500000       9.500000       9.500000       9.500000       9.500000       9.500000    
   9.500000       9.500000       9.500000       9.500000       9.500000       9.500000       9.500000       9.500000       9.500000       9.500000    
   9.500000       9.500000       9.500000       9.500000       9.500000       9.500000       9.500000       9.500000       9.500000       9.500000    
   9.500000       9.500000       9.500000       9.500000       9.500000       9.500000       9.500000       9.500000       9.500000       9.500000    
   9.500000       9.500000       9.500000       9.500000       9.500000       9.500000       9.500000       9.500000       9.500000       9.500000    
   9.500000       9.500000       9.500000       9.500000       9.500000       9.500000       9.500000       9.500000       9.500000       9.500000    
   9.500000       9.500000       9.500000       9.500000       9.500000       9.500000       9.500000       9.500000       9.500000       9.500000    
   9.500000       9.500000       9.500000       9.500000       9.500000       9.500000       9.500000       9.500000       9.500000       9.500000    
   9.500000       9.500000       9.500000       9.500000       9.500000       9.500000       9.500000       9.500000       9.500000       9.500000    
   9.500000       9.500000       9.500000       9.500000       9.500000       9.500000       9.500000       9.500000       9.500000       9.500000    
   9.500000       9.500000       9.500000       9.500000       9.500000       9.500000       9.500000       8.000000    
   12.00000       9.500000       9.500000       9.500000       9.500000       9.500000       9.500000       9.500000       9.500000       9.500000    
   9.500000       9.500000       9.500000       9.500000       9.500000       9.500000       9.500000       9.500000       9.500000       9.500000    
   9.500000       9.500000       9.500000       9.500000       9.500000       9.500000       9.500000       9.500000       9.500000       9.500000    
   9.500000       9.500000       9.500000       9.500000       9.500000       9.500000       9.500000       9.500000       9.500000       9.500000    
   9.500000       9.500000       9.500000       9.500000       9.500000       9.500000       9.500000       9.500000       9.500000       9.500000    
   9.500000       9.500000       9.500000       9.500000       9.500000       9.500000       9.500000       9.500000       9.500000       9.500000    
   9.500000       9.500000       9.500000       9.500000       9.500000       9.500000       9.500000       9.500000       9.500000       9.500000    
   9.500000       9.500000       9.500000       9.500000       9.500000       9.500000       9.500000       9.500000       9.500000       9.500000    
   9.500000       9.500000       9.500000       9.500000       9.500000       9.500000       9.500000       9.500000       9.500000       9.500000    
   9.500000       9.500000       9.500000       9.500000       9.500000       9.500000       9.500000       9.500000       9.500000       9.500000    
   9.500000       9.500000       9.500000       9.500000       9.500000       9.500000       9.500000       8.000000    
   12.00000       9.500000       9.500000       9.500000       9.500000       9.500000       9.500000       9.500000       9.500000       9.500000    
   9.500000       9.500000       9.500000       9.500000       9.500000       9.500000       9.500000       9.500000       9.500000       9.500000    
   9.500000       9.500000       9.500000       9.500000       9.500000       9.500000       9.500000       9.500000       9.500000       9.500000    
   9.500000       9.500000       9.500000       9.500000       9.500000       9.500000       9.500000       9.500000       9.500000       9.500000    
   9.500000       9.500000       9.500000       9.500000       9.500000       9.500000       9.500000       9.500000       9.500000       9.500000    
   9.500000       9.500000       9.500000       9.500000       9.500000       9.500000       9.500000       9.500000       9.500000       9.500000    
   9.500000       9.500000       9.500000       9.500000       9.500000       9.500000       9.500000       9.500000       9.500000       9.500000    
   9.500000       9.500000       9.500000       9.500000       9.500000       9.500000       9.500000       9.500000       9.500000       9.500000    
   9.500000       9.500000       9.500000       9.500000       9.500000       9.500000       9.500000       9.500000       9.500000       9.500000    
   9.500000       9.500000       9.500000       9.500000       9.500000       9.500000       9.500000       9.500000       9.500000       9.500000    
   9.500000       9.500000       9.500000       9.500000       9.500000       9.500000       9.500000       8.000000    
   12.00000       9.500000       9.500000       9.500000       9.500000       9.500000       9.500000       9.500000       9.500000       9.500000    
   9.500000       9.500000       9.500000       9.500000       9.500000       9.500000       9.500000       9.500000       9.500000       9.500000    
   9.500000       9.500000       9.500000       9.500000       9.500000       9.500000       9.500000       9.500000       9.500000       9.500000    
   9.500000       9.500000       9.500000       9.500000       9.500000       9.500000       9.500000       9.500000       9.500000       9.500000    
   9.500000       9.500000       9.500000       9.500000       9.500000       9.500000       9.500000       9.500000       9.500000       9.500000    
   9.500000       9.500000       9.500000       9.500000       9.500000       9.500000       9.500000       9.500000       9.500000       9.500000    
   9.500000       9.500000       9.500000       9.500000       9.500000       9.500000       9.500000       9.500000       9.500000       9.500000    
   9.500000       9.500000       9.500000       9.500000       9.500000       9.500000       9.500000       9.500000       9.500000       9.500000    
   9.500000       9.500000       9.500000       9.500000       9.500000       9.500000       9.500000       9.500000       9.500000       9.500000    
   9.500000       9.500000       9.500000       9.500000       9.500000       9.500000       9.500000       9.500000       9.500000       9.500000    
   9.500000       9.500000       9.500000       9.500000       9.500000       9.500000       9.500000       8.000000    
   12.00000       9.500000       9.500000       9.500000       9.500000       9.500000       9.500000       9.500000       9.500000       9.500000    
   9.500000       9.500000       9.500000       9.500000       9.500000       9.500000       9.500000       9.500000       9.500000       9.500000    
   9.500000       9.500000       9.500000       9.500000       9.500000       9.500000       9.500000       9.500000       9.500000       9.500000    
   9.500000       9.500000       9.500000       9.500000       9.500000       9.500000       9.500000       9.500000       9.500000       9.500000    
   9.500000       9.500000       9.500000       9.500000       9.500000       9.500000       9.500000       9.500000       9.500000       9.500000    
   9.500000       9.500000       9.500000       9.500000       9.500000       9.500000       9.500000       9.500000       9.500000       9.500000    
   9.500000       9.500000       9.500000       9.500000       9.500000       9.500000       9.500000       9.500000       9.500000       9.500000    
   9.500000       9.500000       9.500000       9.500000       9.500000       9.500000       9.500000       9.500000       9.500000       9.500000    
   9.500000       9.500000       9.500000       9.500000       9.500000       9.500000       9.500000       9.500000       9.500000       9.500000    
   9.500000       9.500000       9.500000       9.500000       9.500000       9.500000       9.500000       9.500000       9.500000       9.500000    
   9.500000       9.500000       9.500000       9.500000       9.500000       9.500000       9.500000       8.000000    
   12.00000       9.500000       9.500000       9.500000       9.500000       9.500000       9.500000       9.500000       9.500000       9.500000    
   9.500000       9.500000       9.500000       9.500000       9.500000       9.500000       9.500000       9.500000       9.500000       9.500000    
   9.500000       9.500000       9.500000       9.500000       9.500000       9.500000       9.500000       9.500000       9.500000       9.500000    