# OC8 input file, prepared by MF5to6 on 9/26/2016 at 10:29:24.

BEGIN Options
  BUDGET FILEOUT  sfr_hole.cbc
  HEAD FILEOUT  sfr_hole.hds
  HEAD PRINT_FORMAT  COLUMNS 10  WIDTH 11  DIGITS 4  GENERAL
END Options

BEGIN PERIOD 1
  SAVE BUDGET ALL
  PRINT BUDGET ALL
  SAVE HEAD ALL
  PRINT HEAD ALL
END PERIOD
