BEGIN OPTIONS
  READASARRAYS
END OPTIONS

BEGIN PERIOD 1
  RECHARGE
    INTERNAL  FACTOR   5.000E-10 IPRN   -1    RECH
     0.5 2.0 0.0 0.0 0.0 0.0 0.0 0.0 0.0 0.0
     2.0 0.5 2.0 0.0 0.0 8.0 8.0 8.0 0.0 0.0
     0.0 2.0 0.5 2.0 2.0 0.5 0.5 0.5 0.0 0.0
     8.0 0.5 0.5 0.5 0.5 0.5 0.5 0.5 2.0 0.0
     8.0 0.5 0.5 0.5 0.5 0.5 0.5 0.5 0.5 0.5
     2.0 0.5 0.5 0.5 0.5 0.5 0.5 0.5 0.5 2.0
     2.0 0.5 0.5 0.5 0.5 0.5 0.5 0.5 2.0 0.0
     0.0 2.0 0.5 0.5 0.5 0.5 0.5 0.5 2.0 0.0
     0.0 2.0 0.5 0.5 0.5 0.5 0.5 0.5 2.0 0.0
     0.0 2.0 0.5 0.5 0.5 0.5 0.5 0.5 0.5 8.0
     0.0 2.0 0.5 0.5 0.5 0.5 0.5 0.5 2.0 0.0
     2.0 0.5 0.5 0.5 0.5 0.5 0.5 0.5 2.0 0.0
     0.5 0.5 0.5 0.5 0.5 0.5 0.5 0.5 2.0 0.0
     0.0 0.5 0.5 0.5 0.5 0.5 2.0 2.0 0.5 0.0
     0.0 0.0 2.0 2.0 2.0 2.0 0.0 0.0 0.0 0.0

END PERIOD
