#option block.  Note -- no comments allowed on auxiliary line
BEGIN OPTIONS
END OPTIONS

BEGIN DIMENSIONS
  MAXBOUND 2
END DIMENSIONS

BEGIN PERIOD 1
         1        13         1     988.0     0.038
         1        14         9    1045.0     0.038
END PERIOD
