BEGIN OPTIONS
  UNIT_CONVERSION 1.486
  OBS6 FILEIN test1tr.sfr.obs
  STAGE FILEOUT test1tr.sfr.stage.bin
  BUDGET FILEOUT test1tr.sfr.cbc
END OPTIONS

#dimension block is required
BEGIN DIMENSIONS
  NREACHES 36
END DIMENSIONS

BEGIN PACKAGEDATA
#rch    k    i    j   length width          slope     sbot bthick      hk rough nconn ustrf ndiv
   1    1    1    1   4500.  12     8.6767896E-04 1093.048    3.0 0.00003  0.03     1   1.0    0
   2    1    2    2   7000.  12     8.6767896E-04 1088.059    3.0 0.00003  0.03     2   1.0    0
   3    1    3    3   6000.  12     8.6767896E-04 1082.419    3.0 0.00003  0.03     2   1.0    0 
   4    1    3    4   5550.  12     8.6767896E-04 1077.408    3.0 0.00003  0.03     3   1.0    1
   5    1    4    5   6500.  12     9.4339624E-04 1071.934    3.0 0.00003  0.03     2   1.0    0
   6    1    5    6   5000.  12     9.4339624E-04 1066.509    3.0 0.00003  0.03     2   1.0    0
   7    1    6    6   5000.  12     9.4339624E-04 1061.792    3.0 0.00003  0.03     2   1.0    0
   8    1    7    6   5000.  12     9.4339624E-04 1057.075    3.0 0.00003  0.03     2   1.0    0
   9    1    8    6   5000.  12     9.4339624E-04 1052.359    3.0 0.00003  0.03     2   1.0    0
  10    1    3    5   5000.  10     5.4545456E-04 1073.636    2.0 0.00003  0.03     2   0.0    0
  11    1    3    6   5000.  10     5.4545456E-04 1070.909    2.0 0.00003  0.03     2   1.0    0
  12    1    3    7   4500.  10     5.4545456E-04 1068.318    2.0 0.00003  0.03     2   1.0    0
  13    1    4    8   6000.  10     5.4545456E-04 1065.455    2.0 0.00003  0.03     2   1.0    0
  14    1    5    8   5000.  10     5.4545456E-04 1062.455    2.0 0.00003  0.03     2   1.0    0  
  15    1    6    8   2000.  10     5.4545456E-04 1060.545    2.0 0.00003  0.03     2   1.0    0
  16    1    5   10   2500.  10     1.8181818E-03 1077.727    3.0 0.00003  0.03     1   1.0    0  
  17    1    5    9   5000.  10     1.8181818E-03 1070.909    3.0 0.00003  0.03     2   1.0    0  
  18    1    6    8   3500.  10     1.8181818E-03 1063.182    3.0 0.00003  0.03     2   1.0    0  
  19    1    6    8   4000.  15     1.0000000E-03 1058.000    3.0 0.00003  0.03     3   1.0    0  
  20    1    7    7   5000.  15     1.0000000E-03 1053.500    3.0 0.00003  0.03     2   1.0    0  
  21    1    8    7   3500.  15     1.0000000E-03 1049.250    3.0 0.00003  0.03     2   1.0    0  
  22    1    8    6   2500.  15     1.0000000E-03 1046.250    3.0 0.00003  0.03     2   1.0    0  
  23    1    9    6   5000.  12     9.0909092E-04 1042.727    3.0 0.00003  0.03     3   1.0    0  
  24    1   10    7   5000.  12     9.0909092E-04 1038.182    3.0 0.00003  0.03     2   1.0    0  
  25    1   11    7   5000.  12     9.0909092E-04 1033.636    3.0 0.00003  0.03     2   1.0    0  
  26    1   12    7   5000.  12     9.0909092E-04 1029.091    3.0 0.00003  0.03     2   1.0    0  
  27    1   13    7   2000.  12     9.0909092E-04 1025.909    3.0 0.00003  0.03     2   1.0    0  
  28    1   14    9   5000.  55     9.6774194E-04 1037.581    3.0 0.00006  0.025    1   1.0    0  
  29    1   13    8   5500.  55     9.6774194E-04 1032.500    3.0 0.00006  0.025    2   1.0    0  
  30    1   13    7   5000.  55     9.6774194E-04 1027.419    3.0 0.00006  0.025    2   1.0    0  
  31    1   13    6   5000.  40     1.2500000E-03 1021.875    3.0 0.00006  0.025    3   1.0    0  
  32    1   13    5   5000.  40     1.2500000E-03 1015.625    3.0 0.00006  0.025    2   1.0    0  
  33    1   13    4   5000.  40     1.2500000E-03 1009.375    3.0 0.00006  0.025    2   1.0    0  
  34    1   13    3   5000.  40     1.2500000E-03 1003.125    3.0 0.00006  0.025    2   1.0    0  
  35    1   13    2   5000.  40     1.2500000E-03 996.8750    3.0 0.00006  0.025    2   1.0    0  
  36    1   13    1   3000.  40     1.2500000E-03 991.8750    3.0 0.00006  0.025    1   1.0    0
END PACKAGEDATA

BEGIN CONNECTIONDATA
  1  -2
  2   1  -3
  3   2  -4
  4   3  -5 -10
  5   4  -6
  6   5  -7
  7   6  -8
  8   7  -9
  9   8 -23
 10   4 -11
 11  10 -12
 12  11 -13
 13  12 -14
 14  13 -15
 15  14 -19
 16 -17
 17  16 -18
 18  17 -19
 19  15  18 -20
 20  19 -21
 21  20 -22
 22  21 -23
 23   9  22 -24
 24  23 -25
 25  24 -26
 26  25 -27
 27  26 -31
 28 -29
 29  28 -30
 30  29 -31
 31  27  30 -32
 32  31 -33
 33  32 -34
 34  33 -35
 35  34 -36
 36  35
END CONNECTIONDATA  

BEGIN DIVERSIONS
# ireach idivno ireach2 cprior
       4      1      10 FRACTION
END DIVERSIONS

begin period 1  
   1 inflow 25. 
  16 inflow 10.
  28 inflow 150.
   4 diversion 1 0.5
end period   
