#option block.  Note -- no comments allowed on auxiliary line
begin options
end options

BEGIN GRIDDATA
  iconvert LAYERED
    constant 1
  ss LAYERED
    constant 1.e-6
  sy LAYERED
    INTERNAL  FACTOR      0.2    IPRN    0            Sy
     1.0 1.0 0.0 0.0 0.0 0.0 0.0 0.0 0.0 0.0
     0.5 1.0 1.0 0.0 0.0 0.5 0.5 0.5 0.0 0.0
     0.0 0.5 1.0 1.0 0.5 0.5 0.5 0.5 0.0 0.0
     0.5 0.5 0.5 1.0 1.0 1.0 0.5 0.5 0.5 0.0
     0.5 0.5 0.5 1.0 1.0 1.0 1.0 1.0 1.0 1.0
     0.5 0.5 0.5 1.0 1.0 1.0 1.0 1.0 0.5 0.5
     0.5 0.5 0.5 1.0 1.0 1.0 1.0 1.0 0.5 0.0
     0.0 0.5 0.5 1.0 1.0 1.0 1.0 0.5 0.5 0.0
     0.0 0.5 0.5 1.0 1.0 1.0 1.0 0.5 0.5 0.0
     0.0 0.5 0.5 1.0 1.0 1.0 1.0 0.5 0.5 0.5
     0.0 0.5 0.5 1.0 1.0 1.0 1.0 0.5 0.5 0.0
     0.5 0.5 1.0 1.0 1.0 1.0 1.0 0.5 0.5 0.0
     1.0 1.0 1.0 1.0 1.0 1.0 1.0 1.0 1.0 0.0
     0.0 0.5 0.5 0.5 0.5 0.5 0.5 0.5 1.0 0.0
     0.0 0.0 0.5 0.5 0.5 0.5 0.0 0.0 0.0 0.0
END GRIDDATA
