# CHD8 input file, prepared by MF5to6 on 3/8/2017 at 13:18:14.

BEGIN Options
  PRINT_INPUT
  PRINT_FLOWS
END Options

BEGIN Dimensions
  MAXBOUND  150
END Dimensions

BEGIN PERIOD 1
  1   1   1  48.             
  1   2   1  48.             
  1   3   1  48.             
  1   4   1  48.             
  1   5   1  48.             
  1   6   1  48.             
  1   7   1  48.             
  1   8   1  48.             
  1   9   1  48.             
  1  10   1  48.             
  1  11   1  48.             
  1  12   1  48.             
  1  13   1  48.             
  1  14   1  48.             
  1  15   1  48.             
  1  16   1  48.             
  1  17   1  48.             
  1  18   1  48.             
  1  19   1  48.             
  1  20   1  48.             
  1  21   1  48.             
  1  22   1  48.             
  1  23   1  48.             
  1  24   1  48.             
  1  25   1  48.             
  1  26   1  48.             
  1  27   1  48.             
  1  28   1  48.             
  1  29   1  48.             
  1  30   1  48.             
  1  31   1  48.             
  1  32   1  48.             
  1  33   1  48.             
  1  34   1  48.             
  1  35   1  48.             
  1  36   1  48.             
  1  37   1  48.             
  1  38   1  48.             
  1  39   1  48.             
  1  40   1  48.             
  1  41   1  48.             
  1  42   1  48.             
  1  43   1  48.             
  1  44   1  48.             
  1  45   1  48.             
  1  46   1  48.             
  1  47   1  48.             
  1  48   1  48.             
  1  49   1  48.             
  1  50   1  48.             
  1  51   1  48.             
  1  52   1  48.             
  1  53   1  48.             
  1  54   1  48.             
  1  55   1  48.             
  1  56   1  48.             
  1  57   1  48.             
  1  58   1  48.             
  1  59   1  48.             
  1  60   1  48.             
  1  61   1  48.             
  1  62   1  48.             
  1  63   1  48.             
  1  64   1  48.             
  1  65   1  48.             
  1  66   1  48.             
  1  67   1  48.             
  1  68   1  48.             
  1  69   1  48.             
  1  70   1  48.             
  1  71   1  48.             
  1  72   1  48.             
  1  73   1  48.             
  1  74   1  48.             
  1  75   1  48.             
  1   1  75  40.
  1   2  75  40.
  1   3  75  40.
  1   4  75  40.
  1   5  75  40.
  1   6  75  40.
  1   7  75  40.
  1   8  75  40.
  1   9  75  40.
  1  10  75  40.
  1  11  75  40.
  1  12  75  40.
  1  13  75  40.
  1  14  75  40.
  1  15  75  40.
  1  16  75  40.
  1  17  75  40.
  1  18  75  40.
  1  19  75  40.
  1  20  75  40.
  1  21  75  40.
  1  22  75  40.
  1  23  75  40.
  1  24  75  40.
  1  25  75  40.
  1  26  75  40.
  1  27  75  40.
  1  28  75  40.
  1  29  75  40.
  1  30  75  40.
  1  31  75  40.
  1  32  75  40.
  1  33  75  40.
  1  34  75  40.
  1  35  75  40.
  1  36  75  40.
  1  37  75  40.
  1  38  75  40.
  1  39  75  40.
  1  40  75  40.
  1  41  75  40.
  1  42  75  40.
  1  43  75  40.
  1  44  75  40.
  1  45  75  40.
  1  46  75  40.
  1  47  75  40.
  1  48  75  40.
  1  49  75  40.
  1  50  75  40.
  1  51  75  40.
  1  52  75  40.
  1  53  75  40.
  1  54  75  40.
  1  55  75  40.
  1  56  75  40.
  1  57  75  40.
  1  58  75  40.
  1  59  75  40.
  1  60  75  40.
  1  61  75  40.
  1  62  75  40.
  1  63  75  40.
  1  64  75  40.
  1  65  75  40.
  1  66  75  40.
  1  67  75  40.
  1  68  75  40.
  1  69  75  40.
  1  70  75  40.
  1  71  75  40.
  1  72  75  40.
  1  73  75  40.
  1  74  75  40.
  1  75  75  40.
END PERIOD
