# NPF6 input file, prepared by MF5to6 on 6/8/2017 at 12:33:24.

BEGIN Options
  PERCHED
  VARIABLECV  DEWATERED
  REWET  WETFCT   0.100000000E-01  IWETIT  1  IHDWET  1
END Options

BEGIN GRIDDATA
  Icelltype LAYERED
    CONSTANT  1
    CONSTANT  1
    CONSTANT  1
  K  LAYERED
    CONSTANT    10.0000000    
    CONSTANT    10.0000000    
    CONSTANT    10.0000000    
  K33  LAYERED
    CONSTANT    10.0000000    
    CONSTANT    10.0000000    
    CONSTANT    10.0000000    
  WETDRY LAYERED
    CONSTANT   0.100000000    
    CONSTANT   0.100000000    
    CONSTANT   0.100000000    
END GRIDDATA
