# OC6 input file, prepared by MF5to6 on 6/8/2017 at 12:33:24.

BEGIN Options
  BUDGET FILEOUT  mf6.cbc
  HEAD FILEOUT  mf6.hds
  HEAD PRINT_FORMAT  COLUMNS 10  WIDTH 11  DIGITS 4  GENERAL             
END Options

BEGIN PERIOD 1
    SAVE BUDGET  STEPS 1 5 10 15 20 25 30 35 40 45 50 55 60 65 70 75 80 85 90 95 100 105 110 115 120 125 130 135 140 145 150 155 160 165 170 175 180 185 190 195 200
    PRINT BUDGET  STEPS 1 5 10 15 20 25 30 35 40 45 50 55 60 65 70 75 80 85 90 95 100 105 110 115 120 125 130 135 140 145 150 155 160 165 170 175 180 185 190 195 200
    SAVE HEAD  STEPS 1 5 10 15 20 25 30 35 40 45 50 55 60 65 70 75 80 85 90 95 100 105 110 115 120 125 130 135 140 145 150 155 160 165 170 175 180 185 190 195 200
    PRINT HEAD  STEPS 1 5 10 15 20 25 30 35 40 45 50 55 60 65 70 75 80 85 90 95 100 105 110 115 120 125 130 135 140 145 150 155 160 165 170 175 180 185 190 195 200
END PERIOD
