# IMS6 input file, prepared by MF5to6 on 6/8/2017 at 12:33:24.

BEGIN Options
  PRINT_OPTION  SUMMARY
  COMPLEXITY  SIMPLE
END Options

BEGIN Nonlinear
  OUTER_HCLOSE   1.0000000E-03
  OUTER_MAXIMUM  100
  UNDER_RELAXATION  NONE
  UNDER_RELAXATION_THETA    0.000000    
  UNDER_RELAXATION_KAPPA    0.000000    
  UNDER_RELAXATION_GAMMA    0.000000    
  UNDER_RELAXATION_MOMENTUM    0.000000    
END Nonlinear

BEGIN LINEAR
  INNER_MAXIMUM  50
  INNER_HCLOSE   1.0000000E-03
  INNER_RCLOSE    1.000000    
  LINEAR_ACCELERATION  CG
  RELAXATION_FACTOR    1.000000    
  NUMBER_ORTHOGONALIZATIONS  2
  REORDERING_METHOD  NONE
END LINEAR
