# TDIS8 input file, prepared by MF5to6 on 8/1/2016 at 14:29:17.

BEGIN Options
  TIME_UNITS SECONDS
END Options

BEGIN Dimensions
  NPER 1
END Dimensions

BEGIN PERIODDATA
    86400.000               1    1.0000000      Items: PERLEN NSTP TSMULT
END PERIODDATA
