BEGIN OPTIONS
  PRINT_INPUT
END OPTIONS

BEGIN DIMENSIONS
NEXG 100
END DIMENSIONS

BEGIN EXCHANGEDATA
  1 100 1  1 1 1  1 0.5 0.5 1.0
  1 100 2  1 1 2  1 0.5 0.5 1.0
  1 100 3  1 1 3  1 0.5 0.5 1.0
  1 100 4  1 1 4  1 0.5 0.5 1.0
  1 100 5  1 1 5  1 0.5 0.5 1.0
  1 100 6  1 1 6  1 0.5 0.5 1.0
  1 100 7  1 1 7  1 0.5 0.5 1.0
  1 100 8  1 1 8  1 0.5 0.5 1.0
  1 100 9  1 1 9  1 0.5 0.5 1.0
  1 100 10  1 1 10  1 0.5 0.5 1.0
  1 100 11  1 1 11  1 0.5 0.5 1.0
  1 100 12  1 1 12  1 0.5 0.5 1.0
  1 100 13  1 1 13  1 0.5 0.5 1.0
  1 100 14  1 1 14  1 0.5 0.5 1.0
  1 100 15  1 1 15  1 0.5 0.5 1.0
  1 100 16  1 1 16  1 0.5 0.5 1.0
  1 100 17  1 1 17  1 0.5 0.5 1.0
  1 100 18  1 1 18  1 0.5 0.5 1.0
  1 100 19  1 1 19  1 0.5 0.5 1.0
  1 100 20  1 1 20  1 0.5 0.5 1.0
  1 100 21  1 1 21  1 0.5 0.5 1.0
  1 100 22  1 1 22  1 0.5 0.5 1.0
  1 100 23  1 1 23  1 0.5 0.5 1.0
  1 100 24  1 1 24  1 0.5 0.5 1.0
  1 100 25  1 1 25  1 0.5 0.5 1.0
  1 100 26  1 1 26  1 0.5 0.5 1.0
  1 100 27  1 1 27  1 0.5 0.5 1.0
  1 100 28  1 1 28  1 0.5 0.5 1.0
  1 100 29  1 1 29  1 0.5 0.5 1.0
  1 100 30  1 1 30  1 0.5 0.5 1.0
  1 100 31  1 1 31  1 0.5 0.5 1.0
  1 100 32  1 1 32  1 0.5 0.5 1.0
  1 100 33  1 1 33  1 0.5 0.5 1.0
  1 100 34  1 1 34  1 0.5 0.5 1.0
  1 100 35  1 1 35  1 0.5 0.5 1.0
  1 100 36  1 1 36  1 0.5 0.5 1.0
  1 100 37  1 1 37  1 0.5 0.5 1.0
  1 100 38  1 1 38  1 0.5 0.5 1.0
  1 100 39  1 1 39  1 0.5 0.5 1.0
  1 100 40  1 1 40  1 0.5 0.5 1.0
  1 100 41  1 1 41  1 0.5 0.5 1.0
  1 100 42  1 1 42  1 0.5 0.5 1.0
  1 100 43  1 1 43  1 0.5 0.5 1.0
  1 100 44  1 1 44  1 0.5 0.5 1.0
  1 100 45  1 1 45  1 0.5 0.5 1.0
  1 100 46  1 1 46  1 0.5 0.5 1.0
  1 100 47  1 1 47  1 0.5 0.5 1.0
  1 100 48  1 1 48  1 0.5 0.5 1.0
  1 100 49  1 1 49  1 0.5 0.5 1.0
  1 100 50  1 1 50  1 0.5 0.5 1.0
  1 100 51  1 1 51  1 0.5 0.5 1.0
  1 100 52  1 1 52  1 0.5 0.5 1.0
  1 100 53  1 1 53  1 0.5 0.5 1.0
  1 100 54  1 1 54  1 0.5 0.5 1.0
  1 100 55  1 1 55  1 0.5 0.5 1.0
  1 100 56  1 1 56  1 0.5 0.5 1.0
  1 100 57  1 1 57  1 0.5 0.5 1.0
  1 100 58  1 1 58  1 0.5 0.5 1.0
  1 100 59  1 1 59  1 0.5 0.5 1.0
  1 100 60  1 1 60  1 0.5 0.5 1.0
  1 100 61  1 1 61  1 0.5 0.5 1.0
  1 100 62  1 1 62  1 0.5 0.5 1.0
  1 100 63  1 1 63  1 0.5 0.5 1.0
  1 100 64  1 1 64  1 0.5 0.5 1.0
  1 100 65  1 1 65  1 0.5 0.5 1.0
  1 100 66  1 1 66  1 0.5 0.5 1.0
  1 100 67  1 1 67  1 0.5 0.5 1.0
  1 100 68  1 1 68  1 0.5 0.5 1.0
  1 100 69  1 1 69  1 0.5 0.5 1.0
  1 100 70  1 1 70  1 0.5 0.5 1.0
  1 100 71  1 1 71  1 0.5 0.5 1.0
  1 100 72  1 1 72  1 0.5 0.5 1.0
  1 100 73  1 1 73  1 0.5 0.5 1.0
  1 100 74  1 1 74  1 0.5 0.5 1.0
  1 100 75  1 1 75  1 0.5 0.5 1.0
  1 100 76  1 1 76  1 0.5 0.5 1.0
  1 100 77  1 1 77  1 0.5 0.5 1.0
  1 100 78  1 1 78  1 0.5 0.5 1.0
  1 100 79  1 1 79  1 0.5 0.5 1.0
  1 100 80  1 1 80  1 0.5 0.5 1.0
  1 100 81  1 1 81  1 0.5 0.5 1.0
  1 100 82  1 1 82  1 0.5 0.5 1.0
  1 100 83  1 1 83  1 0.5 0.5 1.0
  1 100 84  1 1 84  1 0.5 0.5 1.0
  1 100 85  1 1 85  1 0.5 0.5 1.0
  1 100 86  1 1 86  1 0.5 0.5 1.0
  1 100 87  1 1 87  1 0.5 0.5 1.0
  1 100 88  1 1 88  1 0.5 0.5 1.0
  1 100 89  1 1 89  1 0.5 0.5 1.0
  1 100 90  1 1 90  1 0.5 0.5 1.0
  1 100 91  1 1 91  1 0.5 0.5 1.0
  1 100 92  1 1 92  1 0.5 0.5 1.0
  1 100 93  1 1 93  1 0.5 0.5 1.0
  1 100 94  1 1 94  1 0.5 0.5 1.0
  1 100 95  1 1 95  1 0.5 0.5 1.0
  1 100 96  1 1 96  1 0.5 0.5 1.0
  1 100 97  1 1 97  1 0.5 0.5 1.0
  1 100 98  1 1 98  1 0.5 0.5 1.0
  1 100 99  1 1 99  1 0.5 0.5 1.0
  1 100 100  1 1 100  1 0.5 0.5 1.0
END EXCHANGEDATA
