BEGIN OPTIONS
  PRINT_INPUT
END OPTIONS

BEGIN DIMENSIONS
NEXG 100
END DIMENSIONS

BEGIN EXCHANGEDATA
  1 1 100  1 1 1  1 0.5 0.5 1.0
  1 2 100  1 2 1  1 0.5 0.5 1.0
  1 3 100  1 3 1  1 0.5 0.5 1.0
  1 4 100  1 4 1  1 0.5 0.5 1.0
  1 5 100  1 5 1  1 0.5 0.5 1.0
  1 6 100  1 6 1  1 0.5 0.5 1.0
  1 7 100  1 7 1  1 0.5 0.5 1.0
  1 8 100  1 8 1  1 0.5 0.5 1.0
  1 9 100  1 9 1  1 0.5 0.5 1.0
  1 10 100  1 10 1  1 0.5 0.5 1.0
  1 11 100  1 11 1  1 0.5 0.5 1.0
  1 12 100  1 12 1  1 0.5 0.5 1.0
  1 13 100  1 13 1  1 0.5 0.5 1.0
  1 14 100  1 14 1  1 0.5 0.5 1.0
  1 15 100  1 15 1  1 0.5 0.5 1.0
  1 16 100  1 16 1  1 0.5 0.5 1.0
  1 17 100  1 17 1  1 0.5 0.5 1.0
  1 18 100  1 18 1  1 0.5 0.5 1.0
  1 19 100  1 19 1  1 0.5 0.5 1.0
  1 20 100  1 20 1  1 0.5 0.5 1.0
  1 21 100  1 21 1  1 0.5 0.5 1.0
  1 22 100  1 22 1  1 0.5 0.5 1.0
  1 23 100  1 23 1  1 0.5 0.5 1.0
  1 24 100  1 24 1  1 0.5 0.5 1.0
  1 25 100  1 25 1  1 0.5 0.5 1.0
  1 26 100  1 26 1  1 0.5 0.5 1.0
  1 27 100  1 27 1  1 0.5 0.5 1.0
  1 28 100  1 28 1  1 0.5 0.5 1.0
  1 29 100  1 29 1  1 0.5 0.5 1.0
  1 30 100  1 30 1  1 0.5 0.5 1.0
  1 31 100  1 31 1  1 0.5 0.5 1.0
  1 32 100  1 32 1  1 0.5 0.5 1.0
  1 33 100  1 33 1  1 0.5 0.5 1.0
  1 34 100  1 34 1  1 0.5 0.5 1.0
  1 35 100  1 35 1  1 0.5 0.5 1.0
  1 36 100  1 36 1  1 0.5 0.5 1.0
  1 37 100  1 37 1  1 0.5 0.5 1.0
  1 38 100  1 38 1  1 0.5 0.5 1.0
  1 39 100  1 39 1  1 0.5 0.5 1.0
  1 40 100  1 40 1  1 0.5 0.5 1.0
  1 41 100  1 41 1  1 0.5 0.5 1.0
  1 42 100  1 42 1  1 0.5 0.5 1.0
  1 43 100  1 43 1  1 0.5 0.5 1.0
  1 44 100  1 44 1  1 0.5 0.5 1.0
  1 45 100  1 45 1  1 0.5 0.5 1.0
  1 46 100  1 46 1  1 0.5 0.5 1.0
  1 47 100  1 47 1  1 0.5 0.5 1.0
  1 48 100  1 48 1  1 0.5 0.5 1.0
  1 49 100  1 49 1  1 0.5 0.5 1.0
  1 50 100  1 50 1  1 0.5 0.5 1.0
  1 51 100  1 51 1  1 0.5 0.5 1.0
  1 52 100  1 52 1  1 0.5 0.5 1.0
  1 53 100  1 53 1  1 0.5 0.5 1.0
  1 54 100  1 54 1  1 0.5 0.5 1.0
  1 55 100  1 55 1  1 0.5 0.5 1.0
  1 56 100  1 56 1  1 0.5 0.5 1.0
  1 57 100  1 57 1  1 0.5 0.5 1.0
  1 58 100  1 58 1  1 0.5 0.5 1.0
  1 59 100  1 59 1  1 0.5 0.5 1.0
  1 60 100  1 60 1  1 0.5 0.5 1.0
  1 61 100  1 61 1  1 0.5 0.5 1.0
  1 62 100  1 62 1  1 0.5 0.5 1.0
  1 63 100  1 63 1  1 0.5 0.5 1.0
  1 64 100  1 64 1  1 0.5 0.5 1.0
  1 65 100  1 65 1  1 0.5 0.5 1.0
  1 66 100  1 66 1  1 0.5 0.5 1.0
  1 67 100  1 67 1  1 0.5 0.5 1.0
  1 68 100  1 68 1  1 0.5 0.5 1.0
  1 69 100  1 69 1  1 0.5 0.5 1.0
  1 70 100  1 70 1  1 0.5 0.5 1.0
  1 71 100  1 71 1  1 0.5 0.5 1.0
  1 72 100  1 72 1  1 0.5 0.5 1.0
  1 73 100  1 73 1  1 0.5 0.5 1.0
  1 74 100  1 74 1  1 0.5 0.5 1.0
  1 75 100  1 75 1  1 0.5 0.5 1.0
  1 76 100  1 76 1  1 0.5 0.5 1.0
  1 77 100  1 77 1  1 0.5 0.5 1.0
  1 78 100  1 78 1  1 0.5 0.5 1.0
  1 79 100  1 79 1  1 0.5 0.5 1.0
  1 80 100  1 80 1  1 0.5 0.5 1.0
  1 81 100  1 81 1  1 0.5 0.5 1.0
  1 82 100  1 82 1  1 0.5 0.5 1.0
  1 83 100  1 83 1  1 0.5 0.5 1.0
  1 84 100  1 84 1  1 0.5 0.5 1.0
  1 85 100  1 85 1  1 0.5 0.5 1.0
  1 86 100  1 86 1  1 0.5 0.5 1.0
  1 87 100  1 87 1  1 0.5 0.5 1.0
  1 88 100  1 88 1  1 0.5 0.5 1.0
  1 89 100  1 89 1  1 0.5 0.5 1.0
  1 90 100  1 90 1  1 0.5 0.5 1.0
  1 91 100  1 91 1  1 0.5 0.5 1.0
  1 92 100  1 92 1  1 0.5 0.5 1.0
  1 93 100  1 93 1  1 0.5 0.5 1.0
  1 94 100  1 94 1  1 0.5 0.5 1.0
  1 95 100  1 95 1  1 0.5 0.5 1.0
  1 96 100  1 96 1  1 0.5 0.5 1.0
  1 97 100  1 97 1  1 0.5 0.5 1.0
  1 98 100  1 98 1  1 0.5 0.5 1.0
  1 99 100  1 99 1  1 0.5 0.5 1.0
  1 100 100  1 100 1  1 0.5 0.5 1.0
END EXCHANGEDATA
