BEGIN OPTIONS
END OPTIONS

BEGIN PACKAGES
  DIS6 m1_2/model.dis
  IC6 m1_2/model.ic
  NPF6 m1_2/model.npf
  OC6  m1_2/model.oc
END PACKAGES


