# SMS for MODFLOW-USG, generated by Flopy.
1e-9 1e-9 50 30 2 1 1
1. 0. 0. 0. 0 1.1 0.7 0.0
2 0 3 5 0 1e-6 0 1e-09
