# sms8 input file, prepared by mf5to6 on 9/27/2016 at 10:56:52.

begin options
  print_option  summary
  complexity  simple
  no_ptc
end options

begin nonlinear
  outer_dvclose   1.000000e-05
  outer_maximum  100
  under_relaxation  none
  under_relaxation_theta    0.000000    
  under_relaxation_kappa    0.000000    
  under_relaxation_gamma    0.000000    
  under_relaxation_momentum    0.000000    
end nonlinear

begin linear
  inner_maximum  30
  inner_dvclose   1.000000e-05
  inner_rclose   1.0000000e-05
  linear_acceleration  bicgstab
  relaxation_factor    1.000000    
  number_orthogonalizations  2
  reordering_method  none
end linear
