# GHB8 input file, prepared by MF5to6 on 9/27/2016 at 10:56:52.

BEGIN Options
  PRINT_INPUT
END Options

BEGIN Dimensions
  MAXBOUND  1
END Dimensions

BEGIN PERIOD 1
  1  1  1    99.000000        1000.0000
END PERIOD
