# IC8 input file, prepared by MF5to6 on 9/27/2016 at 10:56:52.

BEGIN Options
END Options

BEGIN GRIDDATA
  STRT LAYERED
    CONSTANT    100.0000    
    CONSTANT    100.0000    
    CONSTANT    100.0000    
    CONSTANT    100.0000    
    CONSTANT    100.0000    
END GRIDDATA
