# SMS8 input file, prepared by MF5to6 on 9/27/2016 at 10:56:52.

BEGIN Options
  PRINT_OPTION  SUMMARY
  COMPLEXITY  SIMPLE
  DEV_NO_PTC
END Options

BEGIN Nonlinear
  OUTER_HCLOSE   1.000000E-05
  OUTER_MAXIMUM  100
  UNDER_RELAXATION  NONE
  UNDER_RELAXATION_THETA    0.000000    
  UNDER_RELAXATION_KAPPA    0.000000    
  UNDER_RELAXATION_GAMMA    0.000000    
  UNDER_RELAXATION_MOMENTUM    0.000000    
END Nonlinear

BEGIN LINEAR
  INNER_MAXIMUM  30
  INNER_HCLOSE   1.000000E-05
  INNER_RCLOSE   1.0000000E-05
  LINEAR_ACCELERATION  BICGSTAB
  RELAXATION_FACTOR    1.000000    
  NUMBER_ORTHOGONALIZATIONS  2
  REORDERING_METHOD  NONE
END LINEAR
