# Simulation name file for MODFLOW 6 prepared by MF5to6

BEGIN Options
END Options

BEGIN Timing
  TDIS6  mf6.tdis
END Timing

BEGIN Models
  GWF6  mf6.nam  mf6
END Models

BEGIN Exchanges
END Exchanges

BEGIN SOLUTIONGROUP 1
  MXITER  1
  IMS6  mf6.ims  mf6
END SOLUTIONGROUP
