# WEL8 input file, prepared by MF5to6 on 3/14/2016 at 12:30:00.

BEGIN Options
  PRINT_INPUT
END Options

BEGIN Dimensions
  MAXBOUND  1
END Dimensions

BEGIN PERIOD 1
  1  4  2   -90.000000
END PERIOD
