# CHD8 input file, prepared by MF5to6 on 3/14/2016 at 12:30:00.

BEGIN Options
  PRINT_INPUT
  PRINT_FLOWS
END Options

BEGIN Dimensions
  MAXBOUND  14
END Dimensions

BEGIN PERIOD 1
  1  1  1    120.00000
  1  1  6    115.00000
  1  2  1    120.00000
  1  2  6    115.00000
  1  3  1    120.00000
  1  3  6    115.00000
  1  4  1    120.00000
  1  4  6    115.00000
  1  5  1    120.00000
  1  5  6    115.00000
  1  6  1    120.00000
  1  6  6    115.00000
  1  7  1    120.00000
  1  7  6    115.00000
END PERIOD
