BEGIN Options
  LIST       mf6.lst
  NEWTON
END Options

BEGIN Packages
  DIS6       mf6.dis
  IC6        mf6.ic
  NPF6       mf6.npf
  OC6        mf6.oc
  RCH6       mf6.rch
  GHB6       mf6.ghb
  RIV6       mf6.riv
  WEL6       mf6.wel
END Packages

