# OC8 input file, prepared by MF5to6 on 9/27/2016 at 10:56:52.

BEGIN Options
  BUDGET FILEOUT  mf6.cbc
  HEAD FILEOUT  mf6.hds
  HEAD PRINT_FORMAT  COLUMNS 10  WIDTH 11  DIGITS 4  GENERAL
END Options

BEGIN PERIOD 1
  SAVE BUDGET ALL
  PRINT BUDGET ALL
  SAVE HEAD ALL
  PRINT HEAD ALL
END PERIOD
