BEGIN OPTIONS
  READASARRAYS
  FIXED_CELL
  AUXILIARY MYEVTMULT
#  AUXMULTNAME MYEVTMULT
  PRINT_FLOWS
  TAS6 FILEIN flow15.evt.tas
END OPTIONS

BEGIN PERIOD 1
  SURFACE
    CONSTANT 10.
  RATE TIMEARRAYSERIES etrate
  DEPTH
    CONSTANT 5.
  MYEVTMULT
    CONSTANT 2.
END PERIOD
