# sms8 input file, prepared by mf5to6 on 8/9/2016 at 17:58:04.

begin options
  print_option  summary
  csv_outer_output fileout lpfss.outer.ims.csv
  csv_inner_output fileout lpfss.inner.ims.csv
  complexity  simple
end options

begin nonlinear
  outer_dvclose   1e-6
  outer_maximum  100
  under_relaxation  none
  under_relaxation_theta    0.000000
  under_relaxation_kappa    0.000000
  under_relaxation_gamma    0.000000
  under_relaxation_momentum    0.000000
end nonlinear

begin linear
  inner_maximum  20
  inner_dvclose   1e-6
  inner_rclose    1000.000
  linear_acceleration  cg
  relaxation_factor    1.000000
  number_orthogonalizations  2
  reordering_method  none
end linear
