# IC8 input file, prepared by MF5to6 on 8/9/2016 at 17:58:04.

BEGIN Options
END Options

BEGIN GRIDDATA
  STRT LAYERED
    CONSTANT    100.   
    CONSTANT    100.    
    CONSTANT    100.    
END GRIDDATA
