# SMS8 input file, prepared by MF5to6 on 8/9/2016 at 17:58:04.

BEGIN Options
  PRINT_OPTION  SUMMARY
  CSV_OUTPUT FILEOUT lpfss.ims.csv
  COMPLEXITY  SIMPLE
END Options

BEGIN Nonlinear
  OUTER_HCLOSE   1e-6
  OUTER_MAXIMUM  100
  UNDER_RELAXATION  NONE
  UNDER_RELAXATION_THETA    0.000000    
  UNDER_RELAXATION_KAPPA    0.000000    
  UNDER_RELAXATION_GAMMA    0.000000    
  UNDER_RELAXATION_MOMENTUM    0.000000    
END Nonlinear

BEGIN LINEAR
  INNER_MAXIMUM  20
  INNER_HCLOSE   1e-6
  INNER_RCLOSE    1000.000    
  LINEAR_ACCELERATION  CG
  RELAXATION_FACTOR    1.000000    
  NUMBER_ORTHOGONALIZATIONS  2
  REORDERING_METHOD  NONE
END LINEAR
