# LPF for MODFLOW, generated by Flopy.
        53    -1E+30         0  
         1
         0
   1.000000E+00
         0
         0
CONSTANT    1.000000E+00                           #hk layer 1                    
CONSTANT    1.000000E+00                           #vka layer 1                   
CONSTANT    1.000000E-05                           #ss layer 1                    
CONSTANT    1.200000E-01                           #sy layer 1                    
