# UZF1 for MODFLOW, generated by Flopy.
         1         1         0         0        57         0        10        20         1   1.000000E+00 NUZTOP IUZFOPT IRUNFLG IETFLG IUZFCB1 IUZFCB2 NTRAIL NSETS NUZGAGES                                
CONSTANT          1                                #iuzfbnd                       
CONSTANT    1.000000E+00                           #vks                           
CONSTANT    3.500000E+00                           #eps                           
CONSTANT    2.000000E-01                           #thts                          
CONSTANT    8.000000E-02                           #thti                          
         1         2        54         3 IUZROW IUZCOL IFTUNIT IUZOPT
         1 NUZF1 for stress period 1
CONSTANT    1.000000E+00                           #finf_1                        
