# Name file for MODFLOW-2005, generated by Flopy.
#xul:0; yul:1; rotation:0; proj4_str:+init=EPSG:4326; units:meters; lenuni:2 ;start_datetime:1-1-1970
LIST           2 uzf3col.list
DIS           11 uzf3col.dis 
BAS6          13 uzf3col.bas 
LPF           15 uzf3col.lpf 
UZF           19 uzf3col.uzf 
DATA(BINARY)  57 uzf3col.uzfbt1 
DATA          54 uzf3col.uzfb0 
PCG           27 uzf3col.pcg 
OC            14 uzf3col.oc 
DATA(BINARY)  51 uzf3col.hds REPLACE
DATA(BINARY)  52 uzf3col.ddn REPLACE
DATA(BINARY)  53 uzf3col.cbc REPLACE
