# Discretization file for MODFLOW, generated by Flopy.
         1         1         3         1         4         2
  0
CONSTANT    1.000000E+00                           #delr                          
CONSTANT    1.000000E+00                           #delc                          
CONSTANT    1.000000E+02                           #model_top                     
CONSTANT    0.000000E+00                           #botm layer 1                  
     20.000000             1  1.000000  TR 
