begin options
  print_option summary
end options

begin nonlinear
	outer_dvclose 1.e-5
	outer_maximum 25
	under_relaxation none
end nonlinear

begin linear
	inner_dvclose 1.0e-5
	inner_rclose 1.0e-5
	inner_maximum 500
	linear_acceleration cg
	scaling_method none
	reordering_method none
	relaxation_factor 0.97
end linear
