BEGIN OPTIONS
  newton under_relaxation
END OPTIONS

BEGIN PACKAGES
  IC6          Child_GN.ic
  DIS6         Child_GN.dis
  NPF6         Child_GN.npf
  RIV6         Child_GN.riv
  RCH6         Child_GN.rch
  MAW6         Child_GN.maw
  OC6          Child_GN.oc
END PACKAGES

