BEGIN OPTIONS
  SAVE_FLOWS
END OPTIONS

BEGIN GRIDDATA
  ICELLTYPE
    CONSTANT 1
  k LAYERED
    OPEN/CLOSE Child_GN.npf.hk1.ref  FACTOR  1.0  IPRN -1  Layer 1 
    OPEN/CLOSE Child_GN.npf.hk2.ref  FACTOR  1.0  IPRN -1  Layer 2 
    OPEN/CLOSE Child_GN.npf.hk3.ref  FACTOR  1.0  IPRN -1  Layer 3 
    OPEN/CLOSE Child_GN.npf.hk4.ref  FACTOR  1.0  IPRN -1  Layer 4 
    OPEN/CLOSE Child_GN.npf.hk5.ref  FACTOR  1.0  IPRN -1  Layer 5 
    OPEN/CLOSE Child_GN.npf.hk6.ref  FACTOR  1.0  IPRN -1  Layer 6 
    OPEN/CLOSE Child_GN.npf.hk7.ref  FACTOR  1.0  IPRN -1  Layer 7 
    OPEN/CLOSE Child_GN.npf.hk8.ref  FACTOR  1.0  IPRN -1  Layer 8 
    OPEN/CLOSE Child_GN.npf.hk9.ref  FACTOR  1.0  IPRN -1  Layer 9 
    OPEN/CLOSE Child_GN.npf.hk10.ref FACTOR  1.0  IPRN -1  Layer 10
    OPEN/CLOSE Child_GN.npf.hk11.ref FACTOR  1.0  IPRN -1  Layer 11
    OPEN/CLOSE Child_GN.npf.hk12.ref FACTOR  1.0  IPRN -1  Layer 12
    OPEN/CLOSE Child_GN.npf.hk13.ref FACTOR  1.0  IPRN -1  Layer 13
    OPEN/CLOSE Child_GN.npf.hk14.ref FACTOR  1.0  IPRN -1  Layer 14
    OPEN/CLOSE Child_GN.npf.hk15.ref FACTOR  1.0  IPRN -1  Layer 15
    OPEN/CLOSE Child_GN.npf.hk16.ref FACTOR  1.0  IPRN -1  Layer 16
    OPEN/CLOSE Child_GN.npf.hk17.ref FACTOR  1.0  IPRN -1  Layer 17
    OPEN/CLOSE Child_GN.npf.hk18.ref FACTOR  1.0  IPRN -1  Layer 18
    OPEN/CLOSE Child_GN.npf.hk19.ref FACTOR  1.0  IPRN -1  Layer 19
    OPEN/CLOSE Child_GN.npf.hk20.ref FACTOR  1.0  IPRN -1  Layer 20
    OPEN/CLOSE Child_GN.npf.hk21.ref FACTOR  1.0  IPRN -1  Layer 21
    OPEN/CLOSE Child_GN.npf.hk22.ref FACTOR  1.0  IPRN -1  Layer 22
    OPEN/CLOSE Child_GN.npf.hk23.ref FACTOR  1.0  IPRN -1  Layer 23
    OPEN/CLOSE Child_GN.npf.hk24.ref FACTOR  1.0  IPRN -1  Layer 24
    OPEN/CLOSE Child_GN.npf.hk25.ref FACTOR  1.0  IPRN -1  Layer 25
  K33 LAYERED
    OPEN/CLOSE Child_GN.npf.hk1.ref  FACTOR  1.0  IPRN -1  Layer 1 
    OPEN/CLOSE Child_GN.npf.hk2.ref  FACTOR  1.0  IPRN -1  Layer 2 
    OPEN/CLOSE Child_GN.npf.hk3.ref  FACTOR  1.0  IPRN -1  Layer 3 
    OPEN/CLOSE Child_GN.npf.hk4.ref  FACTOR  1.0  IPRN -1  Layer 4 
    OPEN/CLOSE Child_GN.npf.hk5.ref  FACTOR  1.0  IPRN -1  Layer 5 
    OPEN/CLOSE Child_GN.npf.hk6.ref  FACTOR  1.0  IPRN -1  Layer 6 
    OPEN/CLOSE Child_GN.npf.hk7.ref  FACTOR  1.0  IPRN -1  Layer 7 
    OPEN/CLOSE Child_GN.npf.hk8.ref  FACTOR  1.0  IPRN -1  Layer 8 
    OPEN/CLOSE Child_GN.npf.hk9.ref  FACTOR  1.0  IPRN -1  Layer 9 
    OPEN/CLOSE Child_GN.npf.hk10.ref FACTOR  1.0  IPRN -1  Layer 10
    OPEN/CLOSE Child_GN.npf.hk11.ref FACTOR  1.0  IPRN -1  Layer 11
    OPEN/CLOSE Child_GN.npf.hk12.ref FACTOR  1.0  IPRN -1  Layer 12
    OPEN/CLOSE Child_GN.npf.hk13.ref FACTOR  1.0  IPRN -1  Layer 13
    OPEN/CLOSE Child_GN.npf.hk14.ref FACTOR  1.0  IPRN -1  Layer 14
    OPEN/CLOSE Child_GN.npf.hk15.ref FACTOR  1.0  IPRN -1  Layer 15
    OPEN/CLOSE Child_GN.npf.hk16.ref FACTOR  1.0  IPRN -1  Layer 16
    OPEN/CLOSE Child_GN.npf.hk17.ref FACTOR  1.0  IPRN -1  Layer 17
    OPEN/CLOSE Child_GN.npf.hk18.ref FACTOR  1.0  IPRN -1  Layer 18
    OPEN/CLOSE Child_GN.npf.hk19.ref FACTOR  1.0  IPRN -1  Layer 19
    OPEN/CLOSE Child_GN.npf.hk20.ref FACTOR  1.0  IPRN -1  Layer 20
    OPEN/CLOSE Child_GN.npf.hk21.ref FACTOR  1.0  IPRN -1  Layer 21
    OPEN/CLOSE Child_GN.npf.hk22.ref FACTOR  1.0  IPRN -1  Layer 22
    OPEN/CLOSE Child_GN.npf.hk23.ref FACTOR  1.0  IPRN -1  Layer 23
    OPEN/CLOSE Child_GN.npf.hk24.ref FACTOR  1.0  IPRN -1  Layer 24
    OPEN/CLOSE Child_GN.npf.hk25.ref FACTOR  1.0  IPRN -1  Layer 25
END GRIDDATA
