begin options
  PRINT_INPUT 
  PRINT_HEAD
  PRINT_FLOWS  
  BOUNDNAMES
  NO_WELL_STORAGE
end options

begin dimensions
  NMAWWELLS 3
end dimensions

BEGIN PACKAGEDATA
# no radius bottom strt     condeqn ngwnodes  name          
   1   0.15   -5.0 50.0       THEIM        8  well1       
   2   0.15   -5.0 50.0       THEIM        8  well2       
   3   0.15   -5.0 50.0       THEIM        8  well3       
END PACKAGEDATA

BEGIN CONNECTIONDATA
# wellno conn  l  r  c  stop   sbot      K  rskin
       1    1  1 41 60  100.  -5.00    0.0      0
       1    2  2 41 60  100.  -5.00    0.0      0
       1    3  3 41 60  100.  -5.00    0.0      0
       1    4  4 41 60  100.  -5.00    0.0      0
       1    5  5 41 60  100.  -5.00    0.0      0
       1    6  6 41 60  100.  -5.00    0.0      0
       1    7  7 41 60  100.  -5.00    0.0      0
       1    8  8 41 60  100.  -5.00    0.0      0
       2    1  1 62 15  100.  -5.00    0.0      0
       2    2  2 62 15  100.  -5.00    0.0      0
       2    3  3 62 15  100.  -5.00    0.0      0
       2    4  4 62 15  100.  -5.00    0.0      0
       2    5  5 62 15  100.  -5.00    0.0      0
       2    6  6 62 15  100.  -5.00    0.0      0
       2    7  7 62 15  100.  -5.00    0.0      0
       2    8  8 62 15  100.  -5.00    0.0      0
       3    1  1 75  5  100.  -5.00    0.0      0
       3    2  2 75  5  100.  -5.00    0.0      0
       3    3  3 75  5  100.  -5.00    0.0      0
       3    4  4 75  5  100.  -5.00    0.0      0
       3    5  5 75  5  100.  -5.00    0.0      0
       3    6  6 75  5  100.  -5.00    0.0      0
       3    7  7 75  5  100.  -5.00    0.0      0
       3    8  8 75  5  100.  -5.00    0.0      0
END CONNECTIONDATA

begin period 1
  1 rate -1.e-03
  2 rate -1.e-03
  3 rate -2.e-03
end period
