BEGIN OPTIONS
  newton under_relaxation
END OPTIONS

BEGIN PACKAGES
  IC6          TM9_parent_GN.ic
  DIS6         TM9_parent_GN.dis
  NPF6         TM9_parent_GN.npf
  RIV6         TM9_parent_GN.riv
  RCH6         TM9_parent_GN.rch
  MAW6         TM9_parent_GN_01.maw
  MAW6         TM9_parent_GN_02.maw
  OC6          TM9_parent_GN.oc
END PACKAGES

