begin options
  PRINT_OPTION ALL
  CSV_OUTPUT FILEOUT TM9.ims.csv
end options

begin nonlinear
	outer_hclose 1.e-5
	outer_maximum 100 
	#under_relaxation dbd
	#under_relaxation_theta 0.90
	#under_relaxation_kappa 0.0001 
	#under_relaxation_gamma 0.
	#under_relaxation_momentum 0.1
	#BACKTRACKING_NUMBER 20
	#BACKTRACKING_TOLERANCE 2.
	#BACKTRACKING_REDUCTION_FACTOR 0.6
	#BACKTRACKING_RESIDUAL_LIMIT 1.0
end nonlinear

begin linear
	inner_maximum 200
	inner_hclose 1.0e-6
	inner_rclose .0 RELATIVE_RCLOSE
	linear_acceleration bicgstab
	#REORDERING_METHOD RCM
	#SCALING_METHOD DIAGONAL
	#PRECONDITIONER_LEVELS 5
	#NUMBER_ORTHOGONALIZATIONS 7
	#PRECONDITIONER_DROP_TOLERANCE 1.0e-4
	relaxation_factor 0.97
end linear
