begin options
  PRINT_INPUT 
  PRINT_HEAD
  PRINT_FLOWS  
  BOUNDNAMES
  NO_WELL_STORAGE
end options

begin dimensions
  NMAWWELLS 3
end dimensions

BEGIN PACKAGEDATA
# no radius bottom strt     condeqn ngwnodes  name          
   1   0.15   -5.0 50.0       THEIM        4  well1       
   2   0.15   -5.0 50.0       THEIM        4  well2       
   3   0.15   -5.0 50.0       THEIM        4  well3       
END PACKAGEDATA

BEGIN CONNECTIONDATA
# wellno conn  l  r  c  stop   sbot      K  rskin
       1    1  1 41 13  100.  -5.00    0.0      0
       1    2  2 41 13  100.  -5.00    0.0      0
       1    3  3 41 13  100.  -5.00    0.0      0
       1    4  4 41 13  100.  -5.00    0.0      0
       2    1  1 50  5  100.  -5.00    0.0      0
       2    2  2 50  5  100.  -5.00    0.0      0
       2    3  3 50  5  100.  -5.00    0.0      0
       2    4  4 50  5  100.  -5.00    0.0      0
       3    1  1 53  9  100.  -5.00    0.0      0
       3    2  2 53  9  100.  -5.00    0.0      0
       3    3  3 53  9  100.  -5.00    0.0      0
       3    4  4 53  9  100.  -5.00    0.0      0
END CONNECTIONDATA

begin period 1
  2 status inactive
  1 rate -3.e-03
  2 rate -1.e-03
  3 rate -5.e-03  
end period
