begin options
  print_option all
  csv_inner_output fileout tm9.inner.ims.csv
  csv_outer_output fileout tm9.outer.ims.csv
end options

begin nonlinear
	outer_dvclose 1.e-5
	outer_maximum 100
	#under_relaxation dbd
	#under_relaxation_theta 0.90
	#under_relaxation_kappa 0.0001
	#under_relaxation_gamma 0.
	#under_relaxation_momentum 0.1
	#backtracking_number 20
	#backtracking_tolerance 2.
	#backtracking_reduction_factor 0.6
	#backtracking_residual_limit 1.0
end nonlinear

begin linear
	inner_maximum 200
	inner_dvclose 1.0e-6
	inner_rclose .0 relative_rclose
	linear_acceleration bicgstab
	#reordering_method rcm
	#scaling_method diagonal
	#preconditioner_levels 5
	#number_orthogonalizations 7
	#preconditioner_drop_tolerance 1.0e-4
	relaxation_factor 0.97
end linear
