begin options
  PRINT_INPUT
  PRINT_FLOWS
  SAVE_FLOWS
end options

begin dimensions
  MAXBOUND 14
end dimensions

begin period 1
1  1 0.
1  8 0.
1 15 0.
1 19 0.
1 23 0.
1 27 0.
1 34 0.

1  7 -1.
1 14 -1.
1 18 -1.
1 22 -1.
1 26 -1.
1 33 -1.
1 40 -1.
end period
