begin options
  print_option summary
end options

begin nonlinear
  outer_dvclose   1.0e-06
  outer_maximum  500
  under_relaxation  none
end nonlinear

begin linear
  inner_maximum  1000
  inner_dvclose   1.e-6
  inner_rclose   1.e-6
  linear_acceleration  bicgstab
  relaxation_factor 0.0
end linear
