BEGIN Options
  PRINT_OPTION SUMMARY
END Options

BEGIN Nonlinear
  OUTER_HCLOSE   1.0E-06
  OUTER_MAXIMUM  500
  UNDER_RELAXATION  NONE
END Nonlinear

BEGIN LINEAR
  INNER_MAXIMUM  1000
  INNER_HCLOSE   1.e-6
  INNER_RCLOSE   1.e-6
  LINEAR_ACCELERATION  bicgstab
  RELAXATION_FACTOR 0.0
END LINEAR
