
BEGIN OPTIONS
  READASARRAYS
  SAVE_FLOWS
END OPTIONS

BEGIN PERIOD 1
  RECHARGE
    OPEN/CLOSE rech.dat FACTOR  1.0  IPRN 0
END PERIOD
