# Output control package file for MODFLOW, generated by Flopy.
HEAD PRINT FORMAT   0
HEAD SAVE UNIT    51
DRAWDOWN PRINT FORMAT   0
COMPACT BUDGET FILES
period 1 step 1 
save head
print budget
print head

period 1 step 2 
save head
print budget
print head

period 1 step 3 
save head
print budget
print head

period 1 step 4 
save head
print budget
print head

period 1 step 5 
save head
print budget
print head

period 1 step 6 
save head
print budget
print head

period 1 step 7 
save head
print budget
print head

period 1 step 8 
save head
print budget
print head

period 1 step 9 
save head
print budget
print head

period 1 step 10 
save head
print budget
print head

period 1 step 11 
save head
print budget
print head

period 1 step 12 
save head
print budget
print head

period 1 step 13 
save head
print budget
print head

period 1 step 14 
save head
print budget
print head

period 1 step 15 
save head
print budget
print head

period 1 step 16 
save head
print budget
print head

period 1 step 17 
save head
print budget
print head

period 1 step 18 
save head
print budget
print head

period 1 step 19 
save head
print budget
print head

period 1 step 20 
save head
print budget
print head

period 1 step 21 
save head
print budget
print head

period 1 step 22 
save head
print budget
print head

period 1 step 23 
save head
print budget
print head

period 1 step 24 
save head
print budget
print head

period 1 step 25 
save head
print budget
print head

period 1 step 26 
save head
print budget
print head

period 1 step 27 
save head
print budget
print head

period 1 step 28 
save head
print budget
print head

period 1 step 29 
save head
print budget
print head

period 1 step 30 
save head
print budget
print head

period 1 step 31 
save head
print budget
print head

period 1 step 32 
save head
print budget
print head

period 1 step 33 
save head
print budget
print head

period 1 step 34 
save head
print budget
print head

period 1 step 35 
save head
print budget
print head

period 1 step 36 
save head
print budget
print head

period 1 step 37 
save head
print budget
print head

period 1 step 38 
save head
print budget
print head

period 1 step 39 
save head
print budget
print head

period 1 step 40 
save head
print budget
print head

period 1 step 41 
save head
print budget
print head

period 1 step 42 
save head
print budget
print head

period 1 step 43 
save head
print budget
print head

period 1 step 44 
save head
print budget
print head

period 1 step 45 
save head
print budget
print head

period 1 step 46 
save head
print budget
print head

period 1 step 47 
save head
print budget
print head

period 1 step 48 
save head
print budget
print head

period 1 step 49 
save head
print budget
print head

period 1 step 50 
save head
print budget
print head

