# Discretization file for MODFLOW, generated by Flopy.
         1       101       101         1         4         2
  0  0
CONSTANT    1.420000E+02                           #delr                          
CONSTANT    1.420000E+02                           #delc                          
CONSTANT    0.000000E+00                           #model_top                     
CONSTANT          -1000.                           #botm Layer 1                  
        10000.            50  1.200000  TR 

      2.314815            50  1.200000  TR 
