# CHD8 input file, prepared by mf5to15 on 4/10/2015 at 9:04:54.

BEGIN Options
  AUXILIARY MULT
  PRINT_FLOWS
  PRINT_INPUT
  SAVE_FLOWS
  AUXMULTNAME MULT
END Options

BEGIN Dimensions
  MAXBOUND  2
END Dimensions

BEGIN Period 1
  open/close chd.txt sfac 10.
END Period
