BEGIN DIMENSIONS
  NCELLS 31
END DIMENSIONS

BEGIN GRIDDATA
  IZONE
    INTERNAL  1    (free)  12
    1 1 1 1 2 2 2 2 2 3
    3 3 3 3 3 4 4 4 4 4
    4 4 5 6 6 6 6 6 6 7
    7
END GRIDDATA
