BEGIN DIMENSIONS
  NCELLS 200
END DIMENSIONS

BEGIN GRIDDATA
  IZONE
    INTERNAL  1    (free)  12
    1 1 1 1 1 1 1 1 1 1
    1 1 1 1 1 1 1 1 1 1
    1 1 1 1 1 1 1 1 1 1
    1 1 1 1 1 1 1 1 1 1
    1 1 1 1 1 1 1 1 1 1
    1 1 1 1 1 1 1 1 1 1
    1 1 1 1 1 1 1 1 1 1
    1 1 1 1 1 1 1 1 1 1
    1 1 1 1 1 1 1 1 1 1
    1 1 1 1 1 1 1 1 1 1
    2 2 2 2 2 2 2 2 2 2
    2 2 2 2 2 2 2 2 2 2
    2 2 2 2 2 2 2 2 2 2
    2 2 2 2 2 2 2 2 2 2
    2 2 2 2 2 2 2 2 2 2
    2 2 2 2 2 2 2 2 2 2
    2 2 2 2 2 2 2 2 2 2
    2 2 2 2 2 2 2 2 2 2
    2 2 2 2 2 2 2 2 2 2
    2 2 2 2 2 2 2 2 2 2
END GRIDDATA
