begin options
  PRINT_INPUT
  PRINT_FLOWS
  SAVE_FLOWS
end options

begin dimensions
  MAXBOUND 30
end dimensions

begin period 1

#layer 1
 #1 1 1 10.
 1 2 1 10. 
 1 3 1 10. 
 1 4 1 10. 
 1 5 1 10. 
 1 6 1 10. 
 1 7 1 10. 
 1 8 1 10. 
 1 9 1 10. 
 1 10 1 10.

#layer 2
 #2 1 1 10.
 2 2 1 10. 
 2 3 1 10. 
 2 4 1 10. 
 2 5 1 10. 
 2 6 1 10. 
 2 7 1 10. 
 2 8 1 10. 
 2 9 1 10. 
 2 10 1 10.
 
#layer 3
 3 1 1 10. 
 3 2 1 10. 
 3 3 1 10. 
 3 4 1 10. 
 3 5 1 10. 
 3 6 1 10. 
 3 7 1 10. 
 3 8 1 10. 
 3 9 1 10. 
 3 10 1 10.
end period
