begin options
  PRINT_INPUT
  PRINT_FLOWS
  SAVE_FLOWS
end options

begin dimensions
  MAXBOUND 1
end dimensions

begin period 1
 2 2 2 -0.
end period
