BEGIN OPTIONS
  AUXILIARY var1 var2
  PRINT_INPUT
  PRINT_FLOWS
  SAVE_FLOWS
  PACKAGENAME RECHARGE
END OPTIONS

BEGIN DIMENSIONS
  MAXBOUND 100
END DIMENSIONS

BEGIN PERIOD 1
  NLARRAY
    INTERNAL  FACTOR  1 IPRN
	1 1 1 1 1 1 1 1 1 1
	1 2 2 2 2 2 2 2 2 1
	1 2 2 2 2 2 2 2 2 1
	1 2 2 2 2 2 2 2 2 1
	1 2 2 2 3 3 2 2 2 1
	1 2 2 2 3 3 2 2 2 1
	1 2 2 2 2 2 2 2 2 1
	1 2 2 2 2 2 2 2 2 1
	1 2 2 2 2 2 2 2 2 1
	1 1 1 1 1 1 1 1 1 1	
#  RECHARGE
#    INTERNAL  FACTOR  1 IPRN
#	1 1 1 1 1 1 1 1 1 1
#	1 1 1 1 1 1 1 1 1 1
#	1 1 1 1 1 1 1 1 1 1
#	1 1 1 -999.99 1 1 1 1 1 1
#	1 1 1 1 1 1 1 1 1 1
#	1 1 1 1 1 1 1 1 1 1
#	1 1 1 1 1 1 1 1 1 1
#	1 1 1 1 1 1 1 1 1 1
#	1 1 1 1 1 1 1 1 1 1
#	1 1 1 1 1 1 1 1 1 1
  var1
    constant 100.
  var2
    constant -9888.
END PERIOD
