begin options
  PRINT_INPUT
  PRINT_FLOWS
  SAVE_FLOWS
end options

begin dimensions
  MAXBOUND 30
end dimensions

begin period 1

#layer 1
 1 1  10 5.
 1 2  10 5.
 1 3  10 5.
 1 4  10 5.
 1 5  10 5.
 1 6  10 5.
 1 7  10 5.
 1 8  10 5.
 1 9  10 5.
 1 10 10 5.

#layer 2
 2 1  10 5.
 2 2  10 5.
 2 3  10 5.
 2 4  10 5.
 2 5  10 5.
 2 6  10 5.
 2 7  10 5.
 2 8  10 5.
 2 9  10 5.
 2 10 10 5.
 
#layer 3
 3 1  10 5.
 3 2  10 5.
 3 3  10 5.
 3 4  10 5.
 3 5  10 5.
 3 6  10 5.
 3 7  10 5.
 3 8  10 5.
 3 9  10 5.
 3 10 10 5.
end period
