BEGIN DIMENSIONS
  NCELLS 200
END DIMENSIONS

BEGIN GRIDDATA
  IZONE
    constant 1
END GRIDDATA
