# SMS8 input file, prepared by MF5to6 on 4/1/2016 at 11:10:36.

BEGIN Options
  PRINT_OPTION  SUMMARY
  COMPLEXITY  SIMPLE
END Options

BEGIN Nonlinear
  OUTER_HCLOSE   1e-4
  OUTER_MAXIMUM  10000
  UNDER_RELAXATION  NONE
END Nonlinear

BEGIN LINEAR
  INNER_MAXIMUM  100
  INNER_HCLOSE   1e-5
  INNER_RCLOSE   0.1000000
  LINEAR_ACCELERATION  CG
  NUMBER_ORTHOGONALIZATIONS  2
  REORDERING_METHOD  NONE
  RELAXATION_FACTOR 0.97
END LINEAR
