begin options
  print_input
  print_flows
  boundnames
  OBS6 FILEIN lakeex4.lak.obs
end options

begin dimensions
  nlakes 2
  noutlets 0
end dimensions

BEGIN PACKAGEDATA
# lakeno    strt lakeconn  boundname
       1   44.00       78  LAKE_1
       2   35.20       32  LAKE_2
END PACKAGEDATA

BEGIN CONNECTIONDATA
# lakeno iconn layer row column       ctype bedleak belev telev       dx    width type
       1     1     1   8     15  HORIZONTAL     10.     0     0 202.8325 403.7100    2
       1     2     1   9     15  HORIZONTAL     10.     0     0 202.8325 403.7100    2
       1     3     1  10     15  HORIZONTAL     10.     0     0 202.8325 403.7100    2
       1     4     1   7     16  HORIZONTAL     10.     0     0 201.8550 405.6650    3
       1     5     2   8     16    VERTICAL     10.     0     0        0        0    6
       1     6     2   9     16    VERTICAL     10.     0     0        0        0    6
       1     7     2  10     16    VERTICAL     10.     0     0        0        0    6
       1     8     1  11     16  HORIZONTAL     10.     0     0 202.8325 403.7100    2
       1     9     1  11     16  HORIZONTAL     10.     0     0 201.8550 405.6650    4
       1    10     1  12     16  HORIZONTAL     10.     0     0 202.8325 403.7100    2
       1    11     1  13     16  HORIZONTAL     10.     0     0 202.8325 403.7100    2
       1    12     1  14     16  HORIZONTAL     10.     0     0 202.8325 403.7100    2
       1    13     1  15     16  HORIZONTAL     10.     0     0 202.8325 403.7100    2
       1    14     1   7     17  HORIZONTAL     10.     0     0 202.8325 403.7100    2
       1    15     1   7     17  HORIZONTAL     10.     0     0 201.8550 405.6650    3
       1    16     2   8     17    VERTICAL     10.     0     0        0        0    6
       1    17     2   9     17    VERTICAL     10.     0     0        0        0    6
       1    18     2  10     17    VERTICAL     10.     0     0        0        0    6
       1    19     2  11     17    VERTICAL     10.     0     0        0        0    6
       1    20     2  12     17    VERTICAL     10.     0     0        0        0    6
       1    21     2  13     17    VERTICAL     10.     0     0        0        0    6
       1    22     2  14     17    VERTICAL     10.     0     0        0        0    6
       1    23     2  15     17    VERTICAL     10.     0     0        0        0    6
       1    24     1  16     17  HORIZONTAL     10.     0     0 202.8325 403.7100    2
       1    25     1  16     17  HORIZONTAL     10.     0     0 201.8550 405.6650    4
       1    26     1   6     18  HORIZONTAL     10.     0     0 202.8325 403.7100    2
       1    27     1   6     18  HORIZONTAL     10.     0     0 201.8550 405.6650    3
       1    28     2   7     18    VERTICAL     10.     0     0        0        0    6
       1    29     2   8     18    VERTICAL     10.     0     0        0        0    6
       1    30     2   9     18    VERTICAL     10.     0     0        0        0    6
       1    31     2  10     18    VERTICAL     10.     0     0        0        0    6
       1    32     2  11     18    VERTICAL     10.     0     0        0        0    6
       1    33     2  12     18    VERTICAL     10.     0     0        0        0    6
       1    34     2  13     18    VERTICAL     10.     0     0        0        0    6
       1    35     2  14     18    VERTICAL     10.     0     0        0        0    6
       1    36     2  15     18    VERTICAL     10.     0     0        0        0    6
       1    37     2  16     18    VERTICAL     10.     0     0        0        0    6
       1    38     1  17     18  HORIZONTAL     10.     0     0 201.8550 405.6650    4
       1    39     1   5     19  HORIZONTAL     10.     0     0 201.8550 405.6650    3
       1    40     2   6     19    VERTICAL     10.     0     0        0        0    6
       1    41     2   7     19    VERTICAL     10.     0     0        0        0    6
       1    42     2   8     19    VERTICAL     10.     0     0        0        0    6
       1    43     2   9     19    VERTICAL     10.     0     0        0        0    6
       1    44     2  10     19    VERTICAL     10.     0     0        0        0    6
       1    45     2  11     19    VERTICAL     10.     0     0        0        0    6
       1    46     2  12     19    VERTICAL     10.     0     0        0        0    6
       1    47     2  13     19    VERTICAL     10.     0     0        0        0    6
       1    48     2  14     19    VERTICAL     10.     0     0        0        0    6
       1    49     2  15     19    VERTICAL     10.     0     0        0        0    6
       1    50     1  16     19  HORIZONTAL     10.     0     0 202.8325 403.7100    1
       1    51     1  16     19  HORIZONTAL     10.     0     0 201.8550 405.6650    4
       1    52     1   5     20  HORIZONTAL     10.     0     0 201.8550 405.6650    3
       1    53     2   6     20    VERTICAL     10.     0     0        0        0    6
       1    54     2   7     20    VERTICAL     10.     0     0        0        0    6
       1    55     2   8     20    VERTICAL     10.     0     0        0        0    6
       1    56     2   9     20    VERTICAL     10.     0     0        0        0    6
       1    57     2  10     20    VERTICAL     10.     0     0        0        0    6
       1    58     2  11     20    VERTICAL     10.     0     0        0        0    6
       1    59     2  12     20    VERTICAL     10.     0     0        0        0    6
       1    60     2  13     20    VERTICAL     10.     0     0        0        0    6
       1    61     2  14     20    VERTICAL     10.     0     0        0        0    6
       1    62     1  15     20  HORIZONTAL     10.     0     0 202.8325 403.7100    1
       1    63     1  15     20  HORIZONTAL     10.     0     0 201.8550 405.6650    4
       1    64     1   6     21  HORIZONTAL     10.     0     0 202.8325 403.7100    1
       1    65     1   7     21  HORIZONTAL     10.     0     0 202.8325 403.7100    1
       1    66     1   8     21  HORIZONTAL     10.     0     0 202.8325 403.7100    1
       1    67     1   8     21  HORIZONTAL     10.     0     0 201.8550 405.6650    3
       1    68     2   9     21    VERTICAL     10.     0     0        0        0    6
       1    69     2  10     21    VERTICAL     10.     0     0        0        0    6
       1    70     2  11     21    VERTICAL     10.     0     0        0        0    6
       1    71     2  12     21    VERTICAL     10.     0     0        0        0    6
       1    72     1  13     21  HORIZONTAL     10.     0     0 202.8325 403.7100    1
       1    73     1  13     21  HORIZONTAL     10.     0     0 201.8550 405.6650    4
       1    74     1  14     21  HORIZONTAL     10.     0     0 202.8325 403.7100    1
       1    75     1   9     22  HORIZONTAL     10.     0     0 202.8325 403.7100    1
       1    76     1  10     22  HORIZONTAL     10.     0     0 202.8325 403.7100    1
       1    77     1  11     22  HORIZONTAL     10.     0     0 202.8325 403.7100    1
       1    78     1  12     22  HORIZONTAL     10.     0     0 202.8325 403.7100    1
       2     1     2  23      1    VERTICAL     10.     0     0        0        0    6
       2     2     2  24      1    VERTICAL     10.     0     0        0        0    6
       2     3     2  25      1    VERTICAL     10.     0     0        0        0    6
       2     4     2  26      1    VERTICAL     10.     0     0        0        0    6
       2     5     1  27      1  HORIZONTAL     10.     0     0 201.8550 405.6650    4
       2     6     1  18      2  HORIZONTAL     10.     0     0 201.8550 405.6650    3
       2     7     2  19      2    VERTICAL     10.     0     0        0        0    6
       2     8     2  20      2    VERTICAL     10.     0     0        0        0    6
       2     9     2  21      2    VERTICAL     10.     0     0        0        0    6
       2    10     2  22      2    VERTICAL     10.     0     0        0        0    6
       2    11     2  23      2    VERTICAL     10.     0     0        0        0    6
       2    12     2  24      2    VERTICAL     10.     0     0        0        0    6
       2    13     2  25      2    VERTICAL     10.     0     0        0        0    6
       2    14     2  26      2    VERTICAL     10.     0     0        0        0    6
       2    15     1  27      2  HORIZONTAL     10.     0     0 201.8550 405.6650    4
       2    16     1  19      3  HORIZONTAL     10.     0     0 202.8325 403.7100    1
       2    17     1  20      3  HORIZONTAL     10.     0     0 202.8325 403.7100    1
       2    18     1  21      3  HORIZONTAL     10.     0     0 202.8325 403.7100    1
       2    19     1  21      3  HORIZONTAL     10.     0     0 201.8550 405.6650    3
       2    20     2  22      3    VERTICAL     10.     0     0        0        0    6
       2    21     2  23      3    VERTICAL     10.     0     0        0        0    6
       2    22     2  24      3    VERTICAL     10.     0     0        0        0    6
       2    23     1  25      3  HORIZONTAL     10.     0     0 202.8325 403.7100    1
       2    24     1  25      3  HORIZONTAL     10.     0     0 201.8550 405.6650    4
       2    25     1  26      3  HORIZONTAL     10.     0     0 202.8325 403.7100    1
       2    26     1  22      4  HORIZONTAL     10.     0     0 202.8325 403.7100    1
       2    27     1  22      4  HORIZONTAL     10.     0     0 201.8550 405.6650    3
       2    28     2  23      4    VERTICAL     10.     0     0        0        0    6
       2    29     2  24      4    VERTICAL     10.     0     0        0        0    6
       2    30     1  25      4  HORIZONTAL     10.     0     0 201.8550 405.6650    4
       2    31     1  23      5  HORIZONTAL     10.     0     0 202.8325 403.7100    1
       2    32     1  24      5  HORIZONTAL     10.     0     0 202.8325 403.7100    1
END CONNECTIONDATA

begin period 1
 1 RAINFALL    0.0
 1 EVAPORATION 0.0
end period
