BEGIN OPTIONS
  NEWTON
END OPTIONS

BEGIN PACKAGES
  IC6           NT_Transient.ic
  NPF6          NT_Transient.npf
  STO6          NT_Transient.sto
  OC6           NT_Transient.oc
  DIS6          NT_Transient.dis
  MAW6          NT_Transient.maw  'MAW-NT_Well' (16 character limit)
  OBS6          NT_Transient.obs
END PACKAGES

