# IC8 input file, prepared by MF5to6 on 2/25/2016 at 16:36:36.

BEGIN Options
END Options

BEGIN GRIDDATA
  STRT LAYERED
    CONSTANT    115.000000        Initial head for layer 1
    CONSTANT    115.000000        Initial head for layer 2
    CONSTANT    115.000000        Initial head for layer 3
    CONSTANT    115.000000        Initial head for layer 4
    CONSTANT    115.000000        Initial head for layer 5
END GRIDDATA
