# Simulation name file for MODFLOW 6 prepared by MF5to6

BEGIN Options
END Options

BEGIN Timing
  TDIS6  lakeex1a.tdis
END Timing

BEGIN Models
  GWF6  lakeex1a.nam  lakeex1a
END Models

BEGIN Exchanges
END Exchanges

BEGIN SOLUTIONGROUP 1
  MXITER  1
  IMS6  lakeex1a.ims  lakeex1a
END SOLUTIONGROUP
