# Discretization file for MODFLOW, generated by Flopy.
         2        51        51         1         4         2
  0  0
CONSTANT    1.000000E+01                           #delr                          
CONSTANT    1.000000E+01                           #delc                          
CONSTANT    0.000000E+00                           #model_top                     
CONSTANT   -1.000000E+01                           #botm Layer 1                  
CONSTANT   -2.000000E+01                           #botm Layer 2                  
      1.000000             1  1.000000  SS 
