# PCG for MODFLOW, generated by Flopy.
20 30 1 0
1e-06 0.001 1.0 0 0 3 1.0 
