# Well file for MODFLOW, generated by Flopy.
         1         0
         1         0 # stress period 0
         2        26        26 -1.000000
