# Simulation name file for MODFLOW 6 prepared by MF5to6

BEGIN Options
END Options

BEGIN Timing
  TDIS6  drylake.tdis
END Timing

BEGIN Models
  GWF6  drylake.nam  ls
END Models

BEGIN Exchanges
END Exchanges

BEGIN SOLUTIONGROUP 1
  MXITER  1
  IMS6  drylake.ims  ls
END SOLUTIONGROUP
