# MVR6 input file, prepared by MF5to6 on 7/29/2016 at 10:56:36.

BEGIN Options
  PRINT_INPUT
  PRINT_FLOWS
END Options

BEGIN Dimensions
  MAXMVR  104
  MAXPACKAGES  4
END Dimensions

BEGIN Packages
  SFR_1
  LAK_1
  UZF_1
  UZF_2
END Packages

BEGIN Period 1
SFR_1 23 LAK_1 1 FACTOR 1
LAK_1 1 SFR_1 24 FACTOR 1
SFR_1 29 LAK_1 2 FACTOR 1
LAK_1 2 SFR_1 30 FACTOR 1
UZF_1 1 SFR_1 1 FACTOR 1
UZF_1 2 SFR_1 2 FACTOR 1
UZF_1 3 SFR_1 2 FACTOR 1
UZF_1 4 SFR_1 2 FACTOR 1
UZF_1 5 SFR_1 3 FACTOR 1
UZF_1 6 SFR_1 11 FACTOR 1
UZF_1 7 SFR_1 12 FACTOR 1
UZF_1 8 SFR_1 12 FACTOR 1
UZF_1 9 SFR_1 2 FACTOR 1
UZF_1 10 SFR_1 3 FACTOR 1
UZF_1 11 SFR_1 4 FACTOR 1
UZF_1 12 SFR_1 10 FACTOR 1
UZF_1 13 SFR_1 11 FACTOR 1
UZF_1 14 SFR_1 12 FACTOR 1
UZF_1 15 SFR_1 13 FACTOR 1
UZF_1 16 LAK_1 2 FACTOR 1
UZF_1 17 LAK_1 2 FACTOR 1
UZF_1 18 SFR_1 3 FACTOR 1
UZF_1 19 SFR_1 4 FACTOR 1
UZF_1 20 SFR_1 5 FACTOR 1
UZF_1 21 SFR_1 6 FACTOR 1
UZF_1 22 SFR_1 6 FACTOR 1
UZF_1 23 SFR_1 13 FACTOR 1
UZF_1 24 SFR_1 17 FACTOR 1
UZF_1 25 LAK_1 2 FACTOR 1
UZF_1 26 LAK_1 2 FACTOR 1
UZF_1 27 LAK_1 2 FACTOR 1
UZF_1 28 LAK_1 2 FACTOR 1
UZF_1 29 SFR_1 5 FACTOR 1
UZF_1 30 SFR_1 6 FACTOR 1
UZF_1 31 SFR_1 6 FACTOR 1
UZF_1 32 SFR_1 14 FACTOR 1
UZF_1 33 SFR_1 17 FACTOR 1
UZF_1 34 SFR_1 16 FACTOR 1
UZF_1 35 LAK_1 2 FACTOR 1
UZF_1 36 LAK_1 2 FACTOR 1
UZF_1 37 LAK_1 2 FACTOR 1
UZF_1 38 LAK_1 2 FACTOR 1
UZF_1 39 LAK_1 2 FACTOR 1
UZF_1 40 SFR_1 7 FACTOR 1
UZF_1 41 SFR_1 7 FACTOR 1
UZF_1 42 SFR_1 19 FACTOR 1
UZF_1 43 SFR_1 17 FACTOR 1
UZF_1 44 SFR_1 16 FACTOR 1
UZF_1 45 LAK_1 2 FACTOR 1
UZF_1 46 LAK_1 2 FACTOR 1
UZF_1 47 LAK_1 2 FACTOR 1
UZF_1 48 LAK_1 2 FACTOR 1
UZF_1 49 LAK_1 2 FACTOR 1
UZF_1 50 SFR_1 8 FACTOR 1
UZF_2 1 SFR_1 20 FACTOR 1
UZF_2 2 SFR_1 20 FACTOR 1
UZF_2 3 SFR_1 20 FACTOR 1
UZF_2 4 LAK_1 2 FACTOR 1
UZF_2 5 LAK_1 2 FACTOR 1
UZF_2 6 LAK_1 2 FACTOR 1
UZF_2 7 LAK_1 2 FACTOR 1
UZF_2 8 SFR_1 9 FACTOR 1
UZF_2 9 SFR_1 21 FACTOR 1
UZF_2 10 SFR_1 21 FACTOR 1
UZF_2 11 SFR_1 21 FACTOR 1
UZF_2 12 LAK_1 2 FACTOR 1
UZF_2 13 LAK_1 2 FACTOR 1
UZF_2 14 LAK_1 2 FACTOR 1
UZF_2 15 LAK_1 2 FACTOR 1
UZF_2 16 SFR_1 23 FACTOR 1
UZF_2 17 LAK_1 1 FACTOR 1
UZF_2 18 LAK_1 1 FACTOR 1
UZF_2 19 LAK_1 1 FACTOR 1
UZF_2 20 LAK_1 2 FACTOR 1
UZF_2 21 LAK_1 2 FACTOR 1
UZF_2 22 LAK_1 2 FACTOR 1
UZF_2 23 LAK_1 2 FACTOR 1
UZF_2 24 LAK_1 1 FACTOR 1
UZF_2 25 LAK_1 1 FACTOR 1
UZF_2 26 LAK_1 1 FACTOR 1
UZF_2 27 LAK_1 2 FACTOR 1
UZF_2 28 SFR_1 9 FACTOR 1
UZF_2 29 LAK_1 1 FACTOR 1
UZF_2 30 SFR_1 31 FACTOR 1
UZF_2 31 SFR_1 30 FACTOR 1
UZF_2 32 SFR_1 9 FACTOR 1
UZF_2 33 SFR_1 24 FACTOR 1
UZF_2 34 LAK_1 1 FACTOR 1
UZF_2 35 LAK_1 1 FACTOR 1
UZF_2 36 SFR_1 31 FACTOR 1
UZF_2 37 SFR_1 30 FACTOR 1
UZF_2 38 SFR_1 29 FACTOR 1
UZF_2 39 SFR_1 28 FACTOR 1
UZF_2 40 SFR_1 27 FACTOR 1
UZF_2 41 SFR_1 26 FACTOR 1
UZF_2 42 SFR_1 30 FACTOR 1
UZF_2 43 LAK_1 2 FACTOR 1
UZF_2 44 SFR_1 28 FACTOR 1
UZF_2 45 SFR_1 27 FACTOR 1
UZF_2 46 SFR_1 26 FACTOR 1
UZF_2 47 LAK_1 2 FACTOR 1
UZF_2 48 LAK_1 2 FACTOR 1
UZF_2 49 LAK_1 2 FACTOR 1
UZF_2 50 LAK_1 2 FACTOR 1
END Period
