# UZF8 input file, prepared by MF5to6 on 7/29/2016 at 10:56:36.

BEGIN Options
  PRINT_INPUT
  PRINT_FLOWS
  SAVE_FLOWS
  SIMULATE_ET
  LINEAR_GWET
  SIMULATE_GWSEEP
  MOVER
END Options

BEGIN Dimensions
  NUZFCELLS  50
  NTRAILWAVES  25
  NWAVESETS  20
END Dimensions

BEGIN PACKAGEDATA
#  id  cellid lflg vcon surfdep vks thtr thts thti eps
  	1  1	1	1	1	0	1	1.00E-06	0.1	0.3	0.1	3.5
  	2  1	1	2	1	0	1	1.00E-06	0.1	0.3	0.1	3.5
  	3  1	2	1	1	0	1	1.00E-06	0.2	0.3	0.2	3.5
  	4  1	2	2	1	0	1	1.00E-06	0.1	0.3	0.1	3.5
  	5  1	2	3	1	0	1	1.00E-06	0.1	0.3	0.1	3.5
  	6  1	2	6	1	0	1	1.00E-06	0.2	0.3	0.2	3.5
  	7  1	2	7	1	0	1	1.00E-06	0.2	0.3	0.2	3.5
  	8  1	2	8	1	0	1	1.00E-06	0.2	0.3	0.2	3.5
  	9  1	3	2	1	0	1	1.00E-06	0.2	0.3	0.2	3.5
   10  1	3	3	1	0	1	1.00E-06	0.1	0.3	0.1	3.5
   11  1	3	4	1	0	1	1.00E-06	0.1	0.3	0.1	3.5
   12  1	3	5	1	0	1	1.00E-06	0.2	0.3	0.2	3.5
   13  1	3	6	1	0	1	1.00E-06	0.2	0.3	0.2	3.5
   14  1	3	7	1	0	1	1.00E-06	0.2	0.3	0.2	3.5
   15  1	3	8	1	0	1	1.00E-06	0.2	0.3	0.2	3.5
   16  1	4	1	1	0	1	1.00E-06	0.2	0.3	0.2	3.5
   17  1	4	2	1	0	1	1.00E-06	0.2	0.3	0.2	3.5
   18  1	4	3	1	0	1	1.00E-06	0.2	0.3	0.2	3.5
   19  1	4	4	1	0	1	1.00E-06	0.1	0.3	0.1	3.5
   20  1	4	5	1	0	1	1.00E-06	0.1	0.3	0.1	3.5
   21  1	4	6	1	0	1	1.00E-06	0.1	0.3	0.1	3.5
   22  1	4	7	1	0	1	1.00E-06	0.2	0.3	0.2	3.5
   23  1	4	8	1	0	1	1.00E-06	0.2	0.3	0.2	3.5
   24  1	4	9	1	0	1	1.00E-06	0.2	0.3	0.2	3.5
   25  1	5	1	1	0	1	1.00E-06	0.2	0.3	0.2	3.5
   26  1	5	2	1	0	1	1.00E-06	0.2	0.3	0.2	3.5
   27  1	5	3	1	0	1	1.00E-06	0.2	0.3	0.2	3.5
   28  1	5	4	1	0	1	1.00E-06	0.1	0.3	0.1	3.5
   29  1	5	5	1	0	1	1.00E-06	0.1	0.3	0.1	3.5
   30  1	5	6	1	0	1	1.00E-06	0.1	0.3	0.1	3.5
   31  1	5	7	1	0	1	1.00E-06	0.1	0.3	0.1	3.5
   32  1	5	8	1	0	1	1.00E-06	0.1	0.3	0.1	3.5
   33  1	5	9	1	0	1	1.00E-06	0.1	0.3	0.1	3.5
   34  1	5	10	1	0	1	1.00E-06	0.1	0.3	0.1	3.5
   35  1	6	1	1	0	1	1.00E-06	0.2	0.3	0.2	3.5
   36  1	6	2	1	0	1	1.00E-06	0.2	0.3	0.2	3.5
   37  1	6	3	1	0	1	1.00E-06	0.2	0.3	0.2	3.5
   38  1	6	4	1	0	1	1.00E-06	0.1	0.3	0.1	3.5
   39  1	6	5	1	0	1	1.00E-06	0.1	0.3	0.1	3.5
   40  1	6	6	1	0	1	1.00E-06	0.1	0.3	0.1	3.5
   41  1	6	7	1	0	1	1.00E-06	0.1	0.3	0.1	3.5
   42  1	6	8	1	0	1	1.00E-06	0.1	0.3	0.1	3.5
   43  1	6	9	1	0	1	1.00E-06	0.2	0.3	0.2	3.5
   44  1	6	10	1	0	1	1.00E-06	0.2	0.3	0.2	3.5
   45  1	7	1	1	0	1	1.00E-06	0.2	0.3	0.2	3.5
   46  1	7	2	1	0	1	1.00E-06	0.2	0.3	0.2	3.5
   47  1	7	3	1	0	1	1.00E-06	0.2	0.3	0.2	3.5
   48  1	7	4	1	0	1	1.00E-06	0.1	0.3	0.1	3.5
   49  1	7	5	1	0	1	1.00E-06	0.1	0.3	0.1	3.5
   50  1	7	6	1	0	1	1.00E-06	0.1	0.3	0.1	3.5
END PACKAGEDATA

BEGIN	PERIOD	1							
  1	1.00E-09	5.00E-08	15	0.100005	0	0	0
  2	2.00E-09	5.00E-08	15	0.100005	0	0	0
  3	2.00E-09	5.00E-08	15	0.20001	0	0	0
  4	1.00E-09	5.00E-08	15	0.100005	0	0	0
  5	2.00E-09	5.00E-08	15	0.100005	0	0	0
  6	8.00E-09	5.00E-08	15	0.20001	0	0	0
  7	8.00E-09	5.00E-08	15	0.20001	0	0	0
  8	5.00E-09	5.00E-08	15	0.20001	0	0	0
  9	5.00E-09	5.00E-08	15	0.20001	0	0	0
  10	1.00E-09	5.00E-08	15	0.100005	0	0	0
  11	1.00E-09	5.00E-08	15	0.100005	0	0	0
  12	8.00E-09	5.00E-08	15	0.20001	0	0	0
  13	8.00E-09	5.00E-08	15	0.20001	0	0	0
  14	5.00E-09	5.00E-08	15	0.20001	0	0	0
  15	5.00E-09	5.00E-08	15	0.20001	0	0	0
  16	8.00E-09	5.00E-08	15	0.20001	0	0	0
  17	5.00E-09	5.00E-08	15	0.20001	0	0	0
  18	1.00E-09	5.00E-08	15	0.20001	0	0	0
  19	1.00E-09	5.00E-08	15	0.100005	0	0	0
  20	1.00E-09	5.00E-08	15	0.100005	0	0	0
  21	1.00E-09	5.00E-08	15	0.100005	0	0	0
  22	1.00E-09	5.00E-08	15	0.20001	0	0	0
  23	1.00E-09	5.00E-08	15	0.20001	0	0	0
  24	2.00E-09	5.00E-08	15	0.20001	0	0	0
  25	8.00E-09	5.00E-08	15	0.20001	0	0	0
  26	5.00E-09	5.00E-08	15	0.20001	0	0	0
  27	1.00E-09	5.00E-08	15	0.20001	0	0	0
  28	1.00E-09	5.00E-08	15	0.100005	0	0	0
  29	1.00E-09	5.00E-08	15	0.100005	0	0	0
  30	1.00E-09	5.00E-08	15	0.100005	0	0	0
  31	1.00E-09	5.00E-08	15	0.100005	0	0	0
  32	1.00E-09	5.00E-08	15	0.100005	0	0	0
  33	1.00E-09	5.00E-08	15	0.100005	0	0	0
  34	1.00E-09	5.00E-08	15	0.100005	0	0	0
  35	8.00E-09	5.00E-08	15	0.20001	0	0	0
  36	5.00E-09	5.00E-08	15	0.20001	0	0	0
  37	5.00E-09	5.00E-08	15	0.20001	0	0	0
  38	2.00E-09	5.00E-08	15	0.100005	0	0	0
  39	2.00E-09	5.00E-08	15	0.100005	0	0	0
  40	1.00E-09	5.00E-08	15	0.100005	0	0	0
  41	1.00E-09	5.00E-08	15	0.100005	0	0	0
  42	1.00E-09	5.00E-08	15	0.100005	0	0	0
  43	1.00E-09	5.00E-08	15	0.20001	0	0	0
  44	5.00E-09	5.00E-08	15	0.20001	0	0	0
  45	8.00E-09	5.00E-08	15	0.20001	0	0	0
  46	5.00E-09	5.00E-08	15	0.20001	0	0	0
  47	5.00E-09	5.00E-08	15	0.20001	0	0	0
  48	2.00E-09	5.00E-08	15	0.100005	0	0	0
  49	2.00E-09	5.00E-08	15	0.100005	0	0	0
  50	1.00E-09	5.00E-08	15	0.100005	0	0	0
END PERIOD
BEGIN	PERIOD	2							
  1	8.00E-09	5.00E-08	15	0.100005	0	0	0
  2	1.60E-08	5.00E-08	15	0.100005	0	0	0
  3	1.60E-08	5.00E-08	15	0.20001	0	0	0
  4	8.00E-09	5.00E-08	15	0.100005	0	0	0
  5	1.60E-08	5.00E-08	15	0.100005	0	0	0
  6	6.40E-08	5.00E-08	15	0.20001	0	0	0
  7	6.40E-08	5.00E-08	15	0.20001	0	0	0
  8	4.00E-08	5.00E-08	15	0.20001	0	0	0
  9	4.00E-08	5.00E-08	15	0.20001	0	0	0
  10	8.00E-09	5.00E-08	15	0.100005	0	0	0
  11	8.00E-09	5.00E-08	15	0.100005	0	0	0
  12	6.40E-08	5.00E-08	15	0.20001	0	0	0
  13	6.40E-08	5.00E-08	15	0.20001	0	0	0
  14	4.00E-08	5.00E-08	15	0.20001	0	0	0
  15	4.00E-08	5.00E-08	15	0.20001	0	0	0
  16	6.40E-08	5.00E-08	15	0.20001	0	0	0
  17	4.00E-08	5.00E-08	15	0.20001	0	0	0
  18	8.00E-09	5.00E-08	15	0.20001	0	0	0
  19	8.00E-09	5.00E-08	15	0.100005	0	0	0
  20	8.00E-09	5.00E-08	15	0.100005	0	0	0
  21	8.00E-09	5.00E-08	15	0.100005	0	0	0
  22	8.00E-09	5.00E-08	15	0.20001	0	0	0
  23	8.00E-09	5.00E-08	15	0.20001	0	0	0
  24	1.60E-08	5.00E-08	15	0.20001	0	0	0
  25	6.40E-08	5.00E-08	15	0.20001	0	0	0
  26	4.00E-08	5.00E-08	15	0.20001	0	0	0
  27	8.00E-09	5.00E-08	15	0.20001	0	0	0
  28	8.00E-09	5.00E-08	15	0.100005	0	0	0
  29	8.00E-09	5.00E-08	15	0.100005	0	0	0
  30	8.00E-09	5.00E-08	15	0.100005	0	0	0
  31	8.00E-09	5.00E-08	15	0.100005	0	0	0
  32	8.00E-09	5.00E-08	15	0.100005	0	0	0
  33	8.00E-09	5.00E-08	15	0.100005	0	0	0
  34	8.00E-09	5.00E-08	15	0.100005	0	0	0
  35	6.40E-08	5.00E-08	15	0.20001	0	0	0
  36	4.00E-08	5.00E-08	15	0.20001	0	0	0
  37	4.00E-08	5.00E-08	15	0.20001	0	0	0
  38	1.60E-08	5.00E-08	15	0.100005	0	0	0
  39	1.60E-08	5.00E-08	15	0.100005	0	0	0
  40	8.00E-09	5.00E-08	15	0.100005	0	0	0
  41	8.00E-09	5.00E-08	15	0.100005	0	0	0
  42	8.00E-09	5.00E-08	15	0.100005	0	0	0
  43	8.00E-09	5.00E-08	15	0.20001	0	0	0
  44	4.00E-08	5.00E-08	15	0.20001	0	0	0
  45	6.40E-08	5.00E-08	15	0.20001	0	0	0
  46	4.00E-08	5.00E-08	15	0.20001	0	0	0
  47	4.00E-08	5.00E-08	15	0.20001	0	0	0
  48	1.60E-08	5.00E-08	15	0.100005	0	0	0
  49	1.60E-08	5.00E-08	15	0.100005	0	0	0
  50	8.00E-09	5.00E-08	15	0.100005	0	0	0
	END PERIOD
BEGIN	PERIOD	3							
  1	1.00E-08	5.00E-08	15	0.100005	0	0	0
  2	2.00E-08	5.00E-08	15	0.100005	0	0	0
  3	2.00E-08	5.00E-08	15	0.20001	0	0	0
  4	1.00E-08	5.00E-08	15	0.100005	0	0	0
  5	2.00E-08	5.00E-08	15	0.100005	0	0	0
  6	8.00E-08	5.00E-08	15	0.20001	0	0	0
  7	8.00E-08	5.00E-08	15	0.20001	0	0	0
  8	5.00E-08	5.00E-08	15	0.20001	0	0	0
  9	5.00E-08	5.00E-08	15	0.20001	0	0	0
  10	1.00E-08	5.00E-08	15	0.100005	0	0	0
  11	1.00E-08	5.00E-08	15	0.100005	0	0	0
  12	8.00E-08	5.00E-08	15	0.20001	0	0	0
  13	8.00E-08	5.00E-08	15	0.20001	0	0	0
  14	5.00E-08	5.00E-08	15	0.20001	0	0	0
  15	5.00E-08	5.00E-08	15	0.20001	0	0	0
  16	8.00E-08	5.00E-08	15	0.20001	0	0	0
  17	5.00E-08	5.00E-08	15	0.20001	0	0	0
  18	1.00E-08	5.00E-08	15	0.20001	0	0	0
  19	1.00E-08	5.00E-08	15	0.100005	0	0	0
  20	1.00E-08	5.00E-08	15	0.100005	0	0	0
  21	1.00E-08	5.00E-08	15	0.100005	0	0	0
  22	1.00E-08	5.00E-08	15	0.20001	0	0	0
  23	1.00E-08	5.00E-08	15	0.20001	0	0	0
  24	2.00E-08	5.00E-08	15	0.20001	0	0	0
  25	8.00E-08	5.00E-08	15	0.20001	0	0	0
  26	5.00E-08	5.00E-08	15	0.20001	0	0	0
  27	1.00E-08	5.00E-08	15	0.20001	0	0	0
  28	1.00E-08	5.00E-08	15	0.100005	0	0	0
  29	1.00E-08	5.00E-08	15	0.100005	0	0	0
  30	1.00E-08	5.00E-08	15	0.100005	0	0	0
  31	1.00E-08	5.00E-08	15	0.100005	0	0	0
  32	1.00E-08	5.00E-08	15	0.100005	0	0	0
  33	1.00E-08	5.00E-08	15	0.100005	0	0	0
  34	1.00E-08	5.00E-08	15	0.100005	0	0	0
  35	8.00E-08	5.00E-08	15	0.20001	0	0	0
  36	5.00E-08	5.00E-08	15	0.20001	0	0	0
  37	5.00E-08	5.00E-08	15	0.20001	0	0	0
  38	2.00E-08	5.00E-08	15	0.100005	0	0	0
  39	2.00E-08	5.00E-08	15	0.100005	0	0	0
  40	1.00E-08	5.00E-08	15	0.100005	0	0	0
  41	1.00E-08	5.00E-08	15	0.100005	0	0	0
  42	1.00E-08	5.00E-08	15	0.100005	0	0	0
  43	1.00E-08	5.00E-08	15	0.20001	0	0	0
  44	5.00E-08	5.00E-08	15	0.20001	0	0	0
  45	8.00E-08	5.00E-08	15	0.20001	0	0	0
  46	5.00E-08	5.00E-08	15	0.20001	0	0	0
  47	5.00E-08	5.00E-08	15	0.20001	0	0	0
  48	2.00E-08	5.00E-08	15	0.100005	0	0	0
  49	2.00E-08	5.00E-08	15	0.100005	0	0	0
  50	1.00E-08	5.00E-08	15	0.100005	0	0	0
	END PERIOD
BEGIN	PERIOD	4							
  1	4.00E-08	5.00E-08	15	0.100005	0	0	0
  2	8.00E-08	5.00E-08	15	0.100005	0	0	0
  3	8.00E-08	5.00E-08	15	0.20001	0	0	0
  4	4.00E-08	5.00E-08	15	0.100005	0	0	0
  5	8.00E-08	5.00E-08	15	0.100005	0	0	0
  6	3.20E-07	5.00E-08	15	0.20001	0	0	0
  7	3.20E-07	5.00E-08	15	0.20001	0	0	0
  8	2.00E-07	5.00E-08	15	0.20001	0	0	0
  9	2.00E-07	5.00E-08	15	0.20001	0	0	0
  10	4.00E-08	5.00E-08	15	0.100005	0	0	0
  11	4.00E-08	5.00E-08	15	0.100005	0	0	0
  12	3.20E-07	5.00E-08	15	0.20001	0	0	0
  13	3.20E-07	5.00E-08	15	0.20001	0	0	0
  14	2.00E-07	5.00E-08	15	0.20001	0	0	0
  15	2.00E-07	5.00E-08	15	0.20001	0	0	0
  16	3.20E-07	5.00E-08	15	0.20001	0	0	0
  17	2.00E-07	5.00E-08	15	0.20001	0	0	0
  18	4.00E-08	5.00E-08	15	0.20001	0	0	0
  19	4.00E-08	5.00E-08	15	0.100005	0	0	0
  20	4.00E-08	5.00E-08	15	0.100005	0	0	0
  21	4.00E-08	5.00E-08	15	0.100005	0	0	0
  22	4.00E-08	5.00E-08	15	0.20001	0	0	0
  23	4.00E-08	5.00E-08	15	0.20001	0	0	0
  24	8.00E-08	5.00E-08	15	0.20001	0	0	0
  25	3.20E-07	5.00E-08	15	0.20001	0	0	0
  26	2.00E-07	5.00E-08	15	0.20001	0	0	0
  27	4.00E-08	5.00E-08	15	0.20001	0	0	0
  28	4.00E-08	5.00E-08	15	0.100005	0	0	0
  29	4.00E-08	5.00E-08	15	0.100005	0	0	0
  30	4.00E-08	5.00E-08	15	0.100005	0	0	0
  31	4.00E-08	5.00E-08	15	0.100005	0	0	0
  32	4.00E-08	5.00E-08	15	0.100005	0	0	0
  33	4.00E-08	5.00E-08	15	0.100005	0	0	0
  34	4.00E-08	5.00E-08	15	0.100005	0	0	0
  35	3.20E-07	5.00E-08	15	0.20001	0	0	0
  36	2.00E-07	5.00E-08	15	0.20001	0	0	0
  37	2.00E-07	5.00E-08	15	0.20001	0	0	0
  38	8.00E-08	5.00E-08	15	0.100005	0	0	0
  39	8.00E-08	5.00E-08	15	0.100005	0	0	0
  40	4.00E-08	5.00E-08	15	0.100005	0	0	0
  41	4.00E-08	5.00E-08	15	0.100005	0	0	0
  42	4.00E-08	5.00E-08	15	0.100005	0	0	0
  43	4.00E-08	5.00E-08	15	0.20001	0	0	0
  44	2.00E-07	5.00E-08	15	0.20001	0	0	0
  45	3.20E-07	5.00E-08	15	0.20001	0	0	0
  46	2.00E-07	5.00E-08	15	0.20001	0	0	0
  47	2.00E-07	5.00E-08	15	0.20001	0	0	0
  48	8.00E-08	5.00E-08	15	0.100005	0	0	0
  49	8.00E-08	5.00E-08	15	0.100005	0	0	0
  50	4.00E-08	5.00E-08	15	0.100005	0	0	0
	END PERIOD
BEGIN	PERIOD	5							
  1	5.00E-08	5.00E-08	15	0.100005	0	0	0
  2	1.00E-07	5.00E-08	15	0.100005	0	0	0
  3	1.00E-07	5.00E-08	15	0.20001	0	0	0
  4	5.00E-08	5.00E-08	15	0.100005	0	0	0
  5	1.00E-07	5.00E-08	15	0.100005	0	0	0
  6	4.00E-07	5.00E-08	15	0.20001	0	0	0
  7	4.00E-07	5.00E-08	15	0.20001	0	0	0
  8	2.50E-07	5.00E-08	15	0.20001	0	0	0
  9	2.50E-07	5.00E-08	15	0.20001	0	0	0
  10	5.00E-08	5.00E-08	15	0.100005	0	0	0
  11	5.00E-08	5.00E-08	15	0.100005	0	0	0
  12	4.00E-07	5.00E-08	15	0.20001	0	0	0
  13	4.00E-07	5.00E-08	15	0.20001	0	0	0
  14	2.50E-07	5.00E-08	15	0.20001	0	0	0
  15	2.50E-07	5.00E-08	15	0.20001	0	0	0
  16	4.00E-07	5.00E-08	15	0.20001	0	0	0
  17	2.50E-07	5.00E-08	15	0.20001	0	0	0
  18	5.00E-08	5.00E-08	15	0.20001	0	0	0
  19	5.00E-08	5.00E-08	15	0.100005	0	0	0
  20	5.00E-08	5.00E-08	15	0.100005	0	0	0
  21	5.00E-08	5.00E-08	15	0.100005	0	0	0
  22	5.00E-08	5.00E-08	15	0.20001	0	0	0
  23	5.00E-08	5.00E-08	15	0.20001	0	0	0
  24	1.00E-07	5.00E-08	15	0.20001	0	0	0
  25	4.00E-07	5.00E-08	15	0.20001	0	0	0
  26	2.50E-07	5.00E-08	15	0.20001	0	0	0
  27	5.00E-08	5.00E-08	15	0.20001	0	0	0
  28	5.00E-08	5.00E-08	15	0.100005	0	0	0
  29	5.00E-08	5.00E-08	15	0.100005	0	0	0
  30	5.00E-08	5.00E-08	15	0.100005	0	0	0
  31	5.00E-08	5.00E-08	15	0.100005	0	0	0
  32	5.00E-08	5.00E-08	15	0.100005	0	0	0
  33	5.00E-08	5.00E-08	15	0.100005	0	0	0
  34	5.00E-08	5.00E-08	15	0.100005	0	0	0
  35	4.00E-07	5.00E-08	15	0.20001	0	0	0
  36	2.50E-07	5.00E-08	15	0.20001	0	0	0
  37	2.50E-07	5.00E-08	15	0.20001	0	0	0
  38	1.00E-07	5.00E-08	15	0.100005	0	0	0
  39	1.00E-07	5.00E-08	15	0.100005	0	0	0
  40	5.00E-08	5.00E-08	15	0.100005	0	0	0
  41	5.00E-08	5.00E-08	15	0.100005	0	0	0
  42	5.00E-08	5.00E-08	15	0.100005	0	0	0
  43	5.00E-08	5.00E-08	15	0.20001	0	0	0
  44	2.50E-07	5.00E-08	15	0.20001	0	0	0
  45	4.00E-07	5.00E-08	15	0.20001	0	0	0
  46	2.50E-07	5.00E-08	15	0.20001	0	0	0
  47	2.50E-07	5.00E-08	15	0.20001	0	0	0
  48	1.00E-07	5.00E-08	15	0.100005	0	0	0
  49	1.00E-07	5.00E-08	15	0.100005	0	0	0
  50	5.00E-08	5.00E-08	15	0.100005	0	0	0
	END PERIOD
BEGIN	PERIOD	6							
  1	8.00E-08	5.00E-08	15	0.100005	0	0	0
  2	1.60E-07	5.00E-08	15	0.100005	0	0	0
  3	1.60E-07	5.00E-08	15	0.20001	0	0	0
  4	8.00E-08	5.00E-08	15	0.100005	0	0	0
  5	1.60E-07	5.00E-08	15	0.100005	0	0	0
  6	6.40E-07	5.00E-08	15	0.20001	0	0	0
  7	6.40E-07	5.00E-08	15	0.20001	0	0	0
  8	4.00E-07	5.00E-08	15	0.20001	0	0	0
  9	4.00E-07	5.00E-08	15	0.20001	0	0	0
  10	8.00E-08	5.00E-08	15	0.100005	0	0	0
  11	8.00E-08	5.00E-08	15	0.100005	0	0	0
  12	6.40E-07	5.00E-08	15	0.20001	0	0	0
  13	6.40E-07	5.00E-08	15	0.20001	0	0	0
  14	4.00E-07	5.00E-08	15	0.20001	0	0	0
  15	4.00E-07	5.00E-08	15	0.20001	0	0	0
  16	6.40E-07	5.00E-08	15	0.20001	0	0	0
  17	4.00E-07	5.00E-08	15	0.20001	0	0	0
  18	8.00E-08	5.00E-08	15	0.20001	0	0	0
  19	8.00E-08	5.00E-08	15	0.100005	0	0	0
  20	8.00E-08	5.00E-08	15	0.100005	0	0	0
  21	8.00E-08	5.00E-08	15	0.100005	0	0	0
  22	8.00E-08	5.00E-08	15	0.20001	0	0	0
  23	8.00E-08	5.00E-08	15	0.20001	0	0	0
  24	1.60E-07	5.00E-08	15	0.20001	0	0	0
  25	6.40E-07	5.00E-08	15	0.20001	0	0	0
  26	4.00E-07	5.00E-08	15	0.20001	0	0	0
  27	8.00E-08	5.00E-08	15	0.20001	0	0	0
  28	8.00E-08	5.00E-08	15	0.100005	0	0	0
  29	8.00E-08	5.00E-08	15	0.100005	0	0	0
  30	8.00E-08	5.00E-08	15	0.100005	0	0	0
  31	8.00E-08	5.00E-08	15	0.100005	0	0	0
  32	8.00E-08	5.00E-08	15	0.100005	0	0	0
  33	8.00E-08	5.00E-08	15	0.100005	0	0	0
  34	8.00E-08	5.00E-08	15	0.100005	0	0	0
  35	6.40E-07	5.00E-08	15	0.20001	0	0	0
  36	4.00E-07	5.00E-08	15	0.20001	0	0	0
  37	4.00E-07	5.00E-08	15	0.20001	0	0	0
  38	1.60E-07	5.00E-08	15	0.100005	0	0	0
  39	1.60E-07	5.00E-08	15	0.100005	0	0	0
  40	8.00E-08	5.00E-08	15	0.100005	0	0	0
  41	8.00E-08	5.00E-08	15	0.100005	0	0	0
  42	8.00E-08	5.00E-08	15	0.100005	0	0	0
  43	8.00E-08	5.00E-08	15	0.20001	0	0	0
  44	4.00E-07	5.00E-08	15	0.20001	0	0	0
  45	6.40E-07	5.00E-08	15	0.20001	0	0	0
  46	4.00E-07	5.00E-08	15	0.20001	0	0	0
  47	4.00E-07	5.00E-08	15	0.20001	0	0	0
  48	1.60E-07	5.00E-08	15	0.100005	0	0	0
  49	1.60E-07	5.00E-08	15	0.100005	0	0	0
  50	8.00E-08	5.00E-08	15	0.100005	0	0	0
	END PERIOD
BEGIN	PERIOD	7							
  1	3.00E-09	5.00E-08	15	0.100005	0	0	0
  2	6.00E-09	5.00E-08	15	0.100005	0	0	0
  3	6.00E-09	5.00E-08	15	0.20001	0	0	0
  4	3.00E-09	5.00E-08	15	0.100005	0	0	0
  5	6.00E-09	5.00E-08	15	0.100005	0	0	0
  6	2.40E-08	5.00E-08	15	0.20001	0	0	0
  7	2.40E-08	5.00E-08	15	0.20001	0	0	0
  8	1.50E-08	5.00E-08	15	0.20001	0	0	0
  9	1.50E-08	5.00E-08	15	0.20001	0	0	0
  10	3.00E-09	5.00E-08	15	0.100005	0	0	0
  11	3.00E-09	5.00E-08	15	0.100005	0	0	0
  12	2.40E-08	5.00E-08	15	0.20001	0	0	0
  13	2.40E-08	5.00E-08	15	0.20001	0	0	0
  14	1.50E-08	5.00E-08	15	0.20001	0	0	0
  15	1.50E-08	5.00E-08	15	0.20001	0	0	0
  16	2.40E-08	5.00E-08	15	0.20001	0	0	0
  17	1.50E-08	5.00E-08	15	0.20001	0	0	0
  18	3.00E-09	5.00E-08	15	0.20001	0	0	0
  19	3.00E-09	5.00E-08	15	0.100005	0	0	0
  20	3.00E-09	5.00E-08	15	0.100005	0	0	0
  21	3.00E-09	5.00E-08	15	0.100005	0	0	0
  22	3.00E-09	5.00E-08	15	0.20001	0	0	0
  23	3.00E-09	5.00E-08	15	0.20001	0	0	0
  24	6.00E-09	5.00E-08	15	0.20001	0	0	0
  25	2.40E-08	5.00E-08	15	0.20001	0	0	0
  26	1.50E-08	5.00E-08	15	0.20001	0	0	0
  27	3.00E-09	5.00E-08	15	0.20001	0	0	0
  28	3.00E-09	5.00E-08	15	0.100005	0	0	0
  29	3.00E-09	5.00E-08	15	0.100005	0	0	0
  30	3.00E-09	5.00E-08	15	0.100005	0	0	0
  31	3.00E-09	5.00E-08	15	0.100005	0	0	0
  32	3.00E-09	5.00E-08	15	0.100005	0	0	0
  33	3.00E-09	5.00E-08	15	0.100005	0	0	0
  34	3.00E-09	5.00E-08	15	0.100005	0	0	0
  35	2.40E-08	5.00E-08	15	0.20001	0	0	0
  36	1.50E-08	5.00E-08	15	0.20001	0	0	0
  37	1.50E-08	5.00E-08	15	0.20001	0	0	0
  38	6.00E-09	5.00E-08	15	0.100005	0	0	0
  39	6.00E-09	5.00E-08	15	0.100005	0	0	0
  40	3.00E-09	5.00E-08	15	0.100005	0	0	0
  41	3.00E-09	5.00E-08	15	0.100005	0	0	0
  42	3.00E-09	5.00E-08	15	0.100005	0	0	0
  43	3.00E-09	5.00E-08	15	0.20001	0	0	0
  44	1.50E-08	5.00E-08	15	0.20001	0	0	0
  45	2.40E-08	5.00E-08	15	0.20001	0	0	0
  46	1.50E-08	5.00E-08	15	0.20001	0	0	0
  47	1.50E-08	5.00E-08	15	0.20001	0	0	0
  48	6.00E-09	5.00E-08	15	0.100005	0	0	0
  49	6.00E-09	5.00E-08	15	0.100005	0	0	0
  50	3.00E-09	5.00E-08	15	0.100005	0	0	0
	END PERIOD
BEGIN	PERIOD	8							
  1	5.00E-09	5.00E-08	15	0.100005	0	0	0
  2	1.00E-08	5.00E-08	15	0.100005	0	0	0
  3	1.00E-08	5.00E-08	15	0.20001	0	0	0
  4	5.00E-09	5.00E-08	15	0.100005	0	0	0
  5	1.00E-08	5.00E-08	15	0.100005	0	0	0
  6	4.00E-08	5.00E-08	15	0.20001	0	0	0
  7	4.00E-08	5.00E-08	15	0.20001	0	0	0
  8	2.50E-08	5.00E-08	15	0.20001	0	0	0
  9	2.50E-08	5.00E-08	15	0.20001	0	0	0
  10	5.00E-09	5.00E-08	15	0.100005	0	0	0
  11	5.00E-09	5.00E-08	15	0.100005	0	0	0
  12	4.00E-08	5.00E-08	15	0.20001	0	0	0
  13	4.00E-08	5.00E-08	15	0.20001	0	0	0
  14	2.50E-08	5.00E-08	15	0.20001	0	0	0
  15	2.50E-08	5.00E-08	15	0.20001	0	0	0
  16	4.00E-08	5.00E-08	15	0.20001	0	0	0
  17	2.50E-08	5.00E-08	15	0.20001	0	0	0
  18	5.00E-09	5.00E-08	15	0.20001	0	0	0
  19	5.00E-09	5.00E-08	15	0.100005	0	0	0
  20	5.00E-09	5.00E-08	15	0.100005	0	0	0
  21	5.00E-09	5.00E-08	15	0.100005	0	0	0
  22	5.00E-09	5.00E-08	15	0.20001	0	0	0
  23	5.00E-09	5.00E-08	15	0.20001	0	0	0
  24	1.00E-08	5.00E-08	15	0.20001	0	0	0
  25	4.00E-08	5.00E-08	15	0.20001	0	0	0
  26	2.50E-08	5.00E-08	15	0.20001	0	0	0
  27	5.00E-09	5.00E-08	15	0.20001	0	0	0
  28	5.00E-09	5.00E-08	15	0.100005	0	0	0
  29	5.00E-09	5.00E-08	15	0.100005	0	0	0
  30	5.00E-09	5.00E-08	15	0.100005	0	0	0
  31	5.00E-09	5.00E-08	15	0.100005	0	0	0
  32	5.00E-09	5.00E-08	15	0.100005	0	0	0
  33	5.00E-09	5.00E-08	15	0.100005	0	0	0
  34	5.00E-09	5.00E-08	15	0.100005	0	0	0
  35	4.00E-08	5.00E-08	15	0.20001	0	0	0
  36	2.50E-08	5.00E-08	15	0.20001	0	0	0
  37	2.50E-08	5.00E-08	15	0.20001	0	0	0
  38	1.00E-08	5.00E-08	15	0.100005	0	0	0
  39	1.00E-08	5.00E-08	15	0.100005	0	0	0
  40	5.00E-09	5.00E-08	15	0.100005	0	0	0
  41	5.00E-09	5.00E-08	15	0.100005	0	0	0
  42	5.00E-09	5.00E-08	15	0.100005	0	0	0
  43	5.00E-09	5.00E-08	15	0.20001	0	0	0
  44	2.50E-08	5.00E-08	15	0.20001	0	0	0
  45	4.00E-08	5.00E-08	15	0.20001	0	0	0
  46	2.50E-08	5.00E-08	15	0.20001	0	0	0
  47	2.50E-08	5.00E-08	15	0.20001	0	0	0
  48	1.00E-08	5.00E-08	15	0.100005	0	0	0
  49	1.00E-08	5.00E-08	15	0.100005	0	0	0
  50	5.00E-09	5.00E-08	15	0.100005	0	0	0
	END PERIOD
BEGIN	PERIOD	9							
  1	3.00E-09	5.00E-08	15	0.100005	0	0	0
  2	6.00E-09	5.00E-08	15	0.100005	0	0	0
  3	6.00E-09	5.00E-08	15	0.20001	0	0	0
  4	3.00E-09	5.00E-08	15	0.100005	0	0	0
  5	6.00E-09	5.00E-08	15	0.100005	0	0	0
  6	2.40E-08	5.00E-08	15	0.20001	0	0	0
  7	2.40E-08	5.00E-08	15	0.20001	0	0	0
  8	1.50E-08	5.00E-08	15	0.20001	0	0	0
  9	1.50E-08	5.00E-08	15	0.20001	0	0	0
  10	3.00E-09	5.00E-08	15	0.100005	0	0	0
  11	3.00E-09	5.00E-08	15	0.100005	0	0	0
  12	2.40E-08	5.00E-08	15	0.20001	0	0	0
  13	2.40E-08	5.00E-08	15	0.20001	0	0	0
  14	1.50E-08	5.00E-08	15	0.20001	0	0	0
  15	1.50E-08	5.00E-08	15	0.20001	0	0	0
  16	2.40E-08	5.00E-08	15	0.20001	0	0	0
  17	1.50E-08	5.00E-08	15	0.20001	0	0	0
  18	3.00E-09	5.00E-08	15	0.20001	0	0	0
  19	3.00E-09	5.00E-08	15	0.100005	0	0	0
  20	3.00E-09	5.00E-08	15	0.100005	0	0	0
  21	3.00E-09	5.00E-08	15	0.100005	0	0	0
  22	3.00E-09	5.00E-08	15	0.20001	0	0	0
  23	3.00E-09	5.00E-08	15	0.20001	0	0	0
  24	6.00E-09	5.00E-08	15	0.20001	0	0	0
  25	2.40E-08	5.00E-08	15	0.20001	0	0	0
  26	1.50E-08	5.00E-08	15	0.20001	0	0	0
  27	3.00E-09	5.00E-08	15	0.20001	0	0	0
  28	3.00E-09	5.00E-08	15	0.100005	0	0	0
  29	3.00E-09	5.00E-08	15	0.100005	0	0	0
  30	3.00E-09	5.00E-08	15	0.100005	0	0	0
  31	3.00E-09	5.00E-08	15	0.100005	0	0	0
  32	3.00E-09	5.00E-08	15	0.100005	0	0	0
  33	3.00E-09	5.00E-08	15	0.100005	0	0	0
  34	3.00E-09	5.00E-08	15	0.100005	0	0	0
  35	2.40E-08	5.00E-08	15	0.20001	0	0	0
  36	1.50E-08	5.00E-08	15	0.20001	0	0	0
  37	1.50E-08	5.00E-08	15	0.20001	0	0	0
  38	6.00E-09	5.00E-08	15	0.100005	0	0	0
  39	6.00E-09	5.00E-08	15	0.100005	0	0	0
  40	3.00E-09	5.00E-08	15	0.100005	0	0	0
  41	3.00E-09	5.00E-08	15	0.100005	0	0	0
  42	3.00E-09	5.00E-08	15	0.100005	0	0	0
  43	3.00E-09	5.00E-08	15	0.20001	0	0	0
  44	1.50E-08	5.00E-08	15	0.20001	0	0	0
  45	2.40E-08	5.00E-08	15	0.20001	0	0	0
  46	1.50E-08	5.00E-08	15	0.20001	0	0	0
  47	1.50E-08	5.00E-08	15	0.20001	0	0	0
  48	6.00E-09	5.00E-08	15	0.100005	0	0	0
  49	6.00E-09	5.00E-08	15	0.100005	0	0	0
  50	3.00E-09	5.00E-08	15	0.100005	0	0	0
	END PERIOD
BEGIN	PERIOD	10							
  1	2.00E-09	5.00E-08	15	0.100005	0	0	0
  2	4.00E-09	5.00E-08	15	0.100005	0	0	0
  3	4.00E-09	5.00E-08	15	0.20001	0	0	0
  4	2.00E-09	5.00E-08	15	0.100005	0	0	0
  5	4.00E-09	5.00E-08	15	0.100005	0	0	0
  6	1.60E-08	5.00E-08	15	0.20001	0	0	0
  7	1.60E-08	5.00E-08	15	0.20001	0	0	0
  8	1.00E-08	5.00E-08	15	0.20001	0	0	0
  9	1.00E-08	5.00E-08	15	0.20001	0	0	0
  10	2.00E-09	5.00E-08	15	0.100005	0	0	0
  11	2.00E-09	5.00E-08	15	0.100005	0	0	0
  12	1.60E-08	5.00E-08	15	0.20001	0	0	0
  13	1.60E-08	5.00E-08	15	0.20001	0	0	0
  14	1.00E-08	5.00E-08	15	0.20001	0	0	0
  15	1.00E-08	5.00E-08	15	0.20001	0	0	0
  16	1.60E-08	5.00E-08	15	0.20001	0	0	0
  17	1.00E-08	5.00E-08	15	0.20001	0	0	0
  18	2.00E-09	5.00E-08	15	0.20001	0	0	0
  19	2.00E-09	5.00E-08	15	0.100005	0	0	0
  20	2.00E-09	5.00E-08	15	0.100005	0	0	0
  21	2.00E-09	5.00E-08	15	0.100005	0	0	0
  22	2.00E-09	5.00E-08	15	0.20001	0	0	0
  23	2.00E-09	5.00E-08	15	0.20001	0	0	0
  24	4.00E-09	5.00E-08	15	0.20001	0	0	0
  25	1.60E-08	5.00E-08	15	0.20001	0	0	0
  26	1.00E-08	5.00E-08	15	0.20001	0	0	0
  27	2.00E-09	5.00E-08	15	0.20001	0	0	0
  28	2.00E-09	5.00E-08	15	0.100005	0	0	0
  29	2.00E-09	5.00E-08	15	0.100005	0	0	0
  30	2.00E-09	5.00E-08	15	0.100005	0	0	0
  31	2.00E-09	5.00E-08	15	0.100005	0	0	0
  32	2.00E-09	5.00E-08	15	0.100005	0	0	0
  33	2.00E-09	5.00E-08	15	0.100005	0	0	0
  34	2.00E-09	5.00E-08	15	0.100005	0	0	0
  35	1.60E-08	5.00E-08	15	0.20001	0	0	0
  36	1.00E-08	5.00E-08	15	0.20001	0	0	0
  37	1.00E-08	5.00E-08	15	0.20001	0	0	0
  38	4.00E-09	5.00E-08	15	0.100005	0	0	0
  39	4.00E-09	5.00E-08	15	0.100005	0	0	0
  40	2.00E-09	5.00E-08	15	0.100005	0	0	0
  41	2.00E-09	5.00E-08	15	0.100005	0	0	0
  42	2.00E-09	5.00E-08	15	0.100005	0	0	0
  43	2.00E-09	5.00E-08	15	0.20001	0	0	0
  44	1.00E-08	5.00E-08	15	0.20001	0	0	0
  45	1.60E-08	5.00E-08	15	0.20001	0	0	0
  46	1.00E-08	5.00E-08	15	0.20001	0	0	0
  47	1.00E-08	5.00E-08	15	0.20001	0	0	0
  48	4.00E-09	5.00E-08	15	0.100005	0	0	0
  49	4.00E-09	5.00E-08	15	0.100005	0	0	0
  50	2.00E-09	5.00E-08	15	0.100005	0	0	0
	END PERIOD
BEGIN	PERIOD	11							
  1	1.00E-09	5.00E-08	15	0.100005	0	0	0
  2	2.00E-09	5.00E-08	15	0.100005	0	0	0
  3	2.00E-09	5.00E-08	15	0.20001	0	0	0
  4	1.00E-09	5.00E-08	15	0.100005	0	0	0
  5	2.00E-09	5.00E-08	15	0.100005	0	0	0
  6	8.00E-09	5.00E-08	15	0.20001	0	0	0
  7	8.00E-09	5.00E-08	15	0.20001	0	0	0
  8	5.00E-09	5.00E-08	15	0.20001	0	0	0
  9	5.00E-09	5.00E-08	15	0.20001	0	0	0
  10	1.00E-09	5.00E-08	15	0.100005	0	0	0
  11	1.00E-09	5.00E-08	15	0.100005	0	0	0
  12	8.00E-09	5.00E-08	15	0.20001	0	0	0
  13	8.00E-09	5.00E-08	15	0.20001	0	0	0
  14	5.00E-09	5.00E-08	15	0.20001	0	0	0
  15	5.00E-09	5.00E-08	15	0.20001	0	0	0
  16	8.00E-09	5.00E-08	15	0.20001	0	0	0
  17	5.00E-09	5.00E-08	15	0.20001	0	0	0
  18	1.00E-09	5.00E-08	15	0.20001	0	0	0
  19	1.00E-09	5.00E-08	15	0.100005	0	0	0
  20	1.00E-09	5.00E-08	15	0.100005	0	0	0
  21	1.00E-09	5.00E-08	15	0.100005	0	0	0
  22	1.00E-09	5.00E-08	15	0.20001	0	0	0
  23	1.00E-09	5.00E-08	15	0.20001	0	0	0
  24	2.00E-09	5.00E-08	15	0.20001	0	0	0
  25	8.00E-09	5.00E-08	15	0.20001	0	0	0
  26	5.00E-09	5.00E-08	15	0.20001	0	0	0
  27	1.00E-09	5.00E-08	15	0.20001	0	0	0
  28	1.00E-09	5.00E-08	15	0.100005	0	0	0
  29	1.00E-09	5.00E-08	15	0.100005	0	0	0
  30	1.00E-09	5.00E-08	15	0.100005	0	0	0
  31	1.00E-09	5.00E-08	15	0.100005	0	0	0
  32	1.00E-09	5.00E-08	15	0.100005	0	0	0
  33	1.00E-09	5.00E-08	15	0.100005	0	0	0
  34	1.00E-09	5.00E-08	15	0.100005	0	0	0
  35	8.00E-09	5.00E-08	15	0.20001	0	0	0
  36	5.00E-09	5.00E-08	15	0.20001	0	0	0
  37	5.00E-09	5.00E-08	15	0.20001	0	0	0
  38	2.00E-09	5.00E-08	15	0.100005	0	0	0
  39	2.00E-09	5.00E-08	15	0.100005	0	0	0
  40	1.00E-09	5.00E-08	15	0.100005	0	0	0
  41	1.00E-09	5.00E-08	15	0.100005	0	0	0
  42	1.00E-09	5.00E-08	15	0.100005	0	0	0
  43	1.00E-09	5.00E-08	15	0.20001	0	0	0
  44	5.00E-09	5.00E-08	15	0.20001	0	0	0
  45	8.00E-09	5.00E-08	15	0.20001	0	0	0
  46	5.00E-09	5.00E-08	15	0.20001	0	0	0
  47	5.00E-09	5.00E-08	15	0.20001	0	0	0
  48	2.00E-09	5.00E-08	15	0.100005	0	0	0
  49	2.00E-09	5.00E-08	15	0.100005	0	0	0
  50	1.00E-09	5.00E-08	15	0.100005	0	0	0
	END PERIOD
BEGIN	PERIOD	12							
  1	1.00E-09	5.00E-08	15	0.100005	0	0	0
  2	2.00E-09	5.00E-08	15	0.100005	0	0	0
  3	2.00E-09	5.00E-08	15	0.20001	0	0	0
  4	1.00E-09	5.00E-08	15	0.100005	0	0	0
  5	2.00E-09	5.00E-08	15	0.100005	0	0	0
  6	8.00E-09	5.00E-08	15	0.20001	0	0	0
  7	8.00E-09	5.00E-08	15	0.20001	0	0	0
  8	5.00E-09	5.00E-08	15	0.20001	0	0	0
  9	5.00E-09	5.00E-08	15	0.20001	0	0	0
  10	1.00E-09	5.00E-08	15	0.100005	0	0	0
  11	1.00E-09	5.00E-08	15	0.100005	0	0	0
  12	8.00E-09	5.00E-08	15	0.20001	0	0	0
  13	8.00E-09	5.00E-08	15	0.20001	0	0	0
  14	5.00E-09	5.00E-08	15	0.20001	0	0	0
  15	5.00E-09	5.00E-08	15	0.20001	0	0	0
  16	8.00E-09	5.00E-08	15	0.20001	0	0	0
  17	5.00E-09	5.00E-08	15	0.20001	0	0	0
  18	1.00E-09	5.00E-08	15	0.20001	0	0	0
  19	1.00E-09	5.00E-08	15	0.100005	0	0	0
  20	1.00E-09	5.00E-08	15	0.100005	0	0	0
  21	1.00E-09	5.00E-08	15	0.100005	0	0	0
  22	1.00E-09	5.00E-08	15	0.20001	0	0	0
  23	1.00E-09	5.00E-08	15	0.20001	0	0	0
  24	2.00E-09	5.00E-08	15	0.20001	0	0	0
  25	8.00E-09	5.00E-08	15	0.20001	0	0	0
  26	5.00E-09	5.00E-08	15	0.20001	0	0	0
  27	1.00E-09	5.00E-08	15	0.20001	0	0	0
  28	1.00E-09	5.00E-08	15	0.100005	0	0	0
  29	1.00E-09	5.00E-08	15	0.100005	0	0	0
  30	1.00E-09	5.00E-08	15	0.100005	0	0	0
  31	1.00E-09	5.00E-08	15	0.100005	0	0	0
  32	1.00E-09	5.00E-08	15	0.100005	0	0	0
  33	1.00E-09	5.00E-08	15	0.100005	0	0	0
  34	1.00E-09	5.00E-08	15	0.100005	0	0	0
  35	8.00E-09	5.00E-08	15	0.20001	0	0	0
  36	5.00E-09	5.00E-08	15	0.20001	0	0	0
  37	5.00E-09	5.00E-08	15	0.20001	0	0	0
  38	2.00E-09	5.00E-08	15	0.100005	0	0	0
  39	2.00E-09	5.00E-08	15	0.100005	0	0	0
  40	1.00E-09	5.00E-08	15	0.100005	0	0	0
  41	1.00E-09	5.00E-08	15	0.100005	0	0	0
  42	1.00E-09	5.00E-08	15	0.100005	0	0	0
  43	1.00E-09	5.00E-08	15	0.20001	0	0	0
  44	5.00E-09	5.00E-08	15	0.20001	0	0	0
  45	8.00E-09	5.00E-08	15	0.20001	0	0	0
  46	5.00E-09	5.00E-08	15	0.20001	0	0	0
  47	5.00E-09	5.00E-08	15	0.20001	0	0	0
  48	2.00E-09	5.00E-08	15	0.100005	0	0	0
  49	2.00E-09	5.00E-08	15	0.100005	0	0	0
  50	1.00E-09	5.00E-08	15	0.100005	0	0	0
END PERIOD											
