# UZF8 input file, prepared by MF5to6 on 7/29/2016 at 10:56:36.

BEGIN Options
  PRINT_INPUT
  PRINT_FLOWS
  SAVE_FLOWS
  SIMULATE_ET
  LINEAR_GWET
  SIMULATE_GWSEEP
  MOVER
END Options

BEGIN Dimensions
  NUZFCELLS  50
  NTRAILWAVES  25
  NWAVESETS  20
END Dimensions

BEGIN PACKAGEDATA
#  id cellid lflg vcon surfdep vks thtr thts thti eps
  	1  1	7	7	1	0	1	1.00E-06	0.1	0.3	0.1	3.5
  	2  1	7	8	1	0	1	1.00E-06	0.1	0.3	0.1	3.5
  	3  1	7	9	1	0	1	1.00E-06	0.2	0.3	0.2	3.5
  	4  1	8	2	1	0	1	1.00E-06	0.2	0.3	0.2	3.5
  	5  1	8	3	1	0	1	1.00E-06	0.2	0.3	0.2	3.5
  	6  1	8	4	1	0	1	1.00E-06	0.1	0.3	0.1	3.5
  	7  1	8	5	1	0	1	1.00E-06	0.1	0.3	0.1	3.5
  	8  1	8	6	1	0	1	1.00E-06	0.1	0.3	0.1	3.5
  	9  1	8	7	1	0	1	1.00E-06	0.1	0.3	0.1	3.5
   10  1	8	8	1	0	1	1.00E-06	0.2	0.3	0.2	3.5
   11  1	8	9	1	0	1	1.00E-06	0.2	0.3	0.2	3.5
   12  1	9	2	1	0	1	1.00E-06	0.2	0.3	0.2	3.5
   13  1	9	3	1	0	1	1.00E-06	0.2	0.3	0.2	3.5
   14  1	9	4	1	0	1	1.00E-06	0.1	0.3	0.1	3.5
   15  1	9	5	1	0	1	1.00E-06	0.1	0.3	0.1	3.5
   16  1	9	6	1	0	1	1.00E-06	0.1	0.3	0.1	3.5
   17  1	9	7	1	0	1	1.00E-06	0.1	0.3	0.1	3.5
   18  1	9	8	1	0	1	1.00E-06	0.2	0.3	0.2	3.5
   19  1	9	9	1	0	1	1.00E-06	0.2	0.3	0.2	3.5
   20  1	10	2	1	0	1	1.00E-06	0.2	0.3	0.2	3.5
   21  1	10	3	1	0	1	1.00E-06	0.2	0.3	0.2	3.5
   22  1	10	4	1	0	1	1.00E-06	0.1	0.3	0.1	3.5
   23  1	10	5	1	0	1	1.00E-06	0.1	0.3	0.1	3.5
   24  1	10	6	1	0	1	1.00E-06	0.1	0.3	0.1	3.5
   25  1	10	9	1	0	1	1.00E-06	0.2	0.3	0.2	3.5
   26  1	10	10	1	0	1	1.00E-06	0.2	0.3	0.2	3.5
   27  1	11	2	1	0	1	1.00E-06	0.2	0.3	0.2	3.5
   28  1	11	6	1	0	1	1.00E-06	0.1	0.3	0.1	3.5
   29  1	11	9	1	0	1	1.00E-06	0.2	0.3	0.2	3.5
   30  1	12	1	1	0	1	1.00E-06	0.2	0.3	0.2	3.5
   31  1	12	2	1	0	1	1.00E-06	0.2	0.3	0.2	3.5
   32  1	12	6	1	0	1	1.00E-06	0.1	0.3	0.1	3.5
   33  1	12	7	1	0	1	1.00E-06	0.1	0.3	0.1	3.5
   34  1	12	8	1	0	1	1.00E-06	0.2	0.3	0.2	3.5
   35  1	12	9	1	0	1	1.00E-06	0.2	0.3	0.2	3.5
   36  1	13	1	1	0	1	1.00E-06	0.1	0.3	0.1	3.5
   37  1	13	2	1	0	1	1.00E-06	0.1	0.3	0.1	3.5
   38  1	13	6	1	0	1	1.00E-06	0.1	0.3	0.1	3.5
   39  1	13	7	1	0	1	1.00E-06	0.1	0.3	0.1	3.5
   40  1	13	8	1	0	1	1.00E-06	0.1	0.3	0.1	3.5
   41  1	13	9	1	0	1	1.00E-06	0.1	0.3	0.1	3.5
   42  1	14	2	1	0	1	1.00E-06	0.2	0.3	0.2	3.5
   43  1	14	6	1	0	1	1.00E-06	0.2	0.3	0.2	3.5
   44  1	14	7	1	0	1	1.00E-06	0.2	0.3	0.2	3.5
   45  1	14	8	1	0	1	1.00E-06	0.2	0.3	0.2	3.5
   46  1	14	9	1	0	1	1.00E-06	0.1	0.3	0.1	3.5
   47  1	15	3	1	0	1	1.00E-06	0.2	0.3	0.2	3.5
   48  1	15	4	1	0	1	1.00E-06	0.2	0.3	0.2	3.5
   49  1	15	5	1	0	1	1.00E-06	0.2	0.3	0.2	3.5
   50  1	15	6	1	0	1	1.00E-06	0.2	0.3	0.2	3.5
END PACKAGEDATA

BEGIN	PERIOD	1							
#	uzfid	finf	pet	extdp	extwc	ha	hroot	rootact			
  1	1.00E-09	5.00E-08	15	0.100005	0	0	0
  2	2.00E-09	5.00E-08	15	0.100005	0	0	0
  3	2.00E-09	5.00E-08	15	0.20001	0	0	0
  4	5.00E-09	5.00E-08	15	0.20001	0	0	0
  5	5.00E-09	5.00E-08	15	0.20001	0	0	0
  6	2.00E-09	5.00E-08	15	0.100005	0	0	0
  7	2.00E-09	5.00E-08	15	0.100005	0	0	0
  8	1.00E-09	5.00E-08	15	0.100005	0	0	0
  9	1.00E-09	5.00E-08	15	0.100005	0	0	0
  10	2.00E-09	5.00E-08	15	0.20001	0	0	0
  11	5.00E-09	5.00E-08	15	0.20001	0	0	0
  12	5.00E-09	5.00E-08	15	0.20001	0	0	0
  13	5.00E-09	5.00E-08	15	0.20001	0	0	0
  14	2.00E-09	5.00E-08	15	0.100005	0	0	0
  15	2.00E-09	5.00E-08	15	0.100005	0	0	0
  16	1.00E-09	5.00E-08	15	0.100005	0	0	0
  17	1.00E-09	5.00E-08	15	0.100005	0	0	0
  18	2.00E-09	5.00E-08	15	0.20001	0	0	0
  19	5.00E-09	5.00E-08	15	0.20001	0	0	0
  20	5.00E-09	5.00E-08	15	0.20001	0	0	0
  21	5.00E-09	5.00E-08	15	0.20001	0	0	0
  22	2.00E-09	5.00E-08	15	0.100005	0	0	0
  23	2.00E-09	5.00E-08	15	0.100005	0	0	0
  24	1.00E-09	5.00E-08	15	0.100005	0	0	0
  25	5.00E-09	5.00E-08	15	0.20001	0	0	0
  26	8.00E-09	5.00E-08	15	0.20001	0	0	0
  27	1.00E-09	5.00E-08	15	0.20001	0	0	0
  28	1.00E-09	5.00E-08	15	0.100005	0	0	0
  29	5.00E-09	5.00E-08	15	0.20001	0	0	0
  30	1.00E-09	5.00E-08	15	0.20001	0	0	0
  31	1.00E-09	5.00E-08	15	0.20001	0	0	0
  32	1.00E-09	5.00E-08	15	0.100005	0	0	0
  33	1.00E-09	5.00E-08	15	0.100005	0	0	0
  34	1.00E-09	5.00E-08	15	0.20001	0	0	0
  35	2.00E-09	5.00E-08	15	0.20001	0	0	0
  36	1.00E-09	5.00E-08	15	0.100005	0	0	0
  37	1.00E-09	5.00E-08	15	0.100005	0	0	0
  38	2.00E-09	5.00E-08	15	0.100005	0	0	0
  39	2.00E-09	5.00E-08	15	0.100005	0	0	0
  40	1.00E-09	5.00E-08	15	0.100005	0	0	0
  41	1.00E-09	5.00E-08	15	0.100005	0	0	0
  42	2.00E-09	5.00E-08	15	0.20001	0	0	0
  43	5.00E-09	5.00E-08	15	0.20001	0	0	0
  44	5.00E-09	5.00E-08	15	0.20001	0	0	0
  45	2.00E-09	5.00E-08	15	0.20001	0	0	0
  46	1.00E-09	5.00E-08	15	0.100005	0	0	0
  47	8.00E-09	5.00E-08	15	0.20001	0	0	0
  48	8.00E-09	5.00E-08	15	0.20001	0	0	0
  49	8.00E-09	5.00E-08	15	0.20001	0	0	0
  50	8.00E-09	5.00E-08	15	0.20001	0	0	0
END	PERIOD								
									
BEGIN	PERIOD	2							
#	uzfid	finf	pet	extdp	extwc	ha	hroot	rootact			
  1	8.00E-09	5.00E-08	15	0.100005	0	0	0
  2	1.60E-08	5.00E-08	15	0.100005	0	0	0
  3	1.60E-08	5.00E-08	15	0.20001	0	0	0
  4	4.00E-08	5.00E-08	15	0.20001	0	0	0
  5	4.00E-08	5.00E-08	15	0.20001	0	0	0
  6	1.60E-08	5.00E-08	15	0.100005	0	0	0
  7	1.60E-08	5.00E-08	15	0.100005	0	0	0
  8	8.00E-09	5.00E-08	15	0.100005	0	0	0
  9	8.00E-09	5.00E-08	15	0.100005	0	0	0
  10	1.60E-08	5.00E-08	15	0.20001	0	0	0
  11	4.00E-08	5.00E-08	15	0.20001	0	0	0
  12	4.00E-08	5.00E-08	15	0.20001	0	0	0
  13	4.00E-08	5.00E-08	15	0.20001	0	0	0
  14	1.60E-08	5.00E-08	15	0.100005	0	0	0
  15	1.60E-08	5.00E-08	15	0.100005	0	0	0
  16	8.00E-09	5.00E-08	15	0.100005	0	0	0
  17	8.00E-09	5.00E-08	15	0.100005	0	0	0
  18	1.60E-08	5.00E-08	15	0.20001	0	0	0
  19	4.00E-08	5.00E-08	15	0.20001	0	0	0
  20	4.00E-08	5.00E-08	15	0.20001	0	0	0
  21	4.00E-08	5.00E-08	15	0.20001	0	0	0
  22	1.60E-08	5.00E-08	15	0.100005	0	0	0
  23	1.60E-08	5.00E-08	15	0.100005	0	0	0
  24	8.00E-09	5.00E-08	15	0.100005	0	0	0
  25	4.00E-08	5.00E-08	15	0.20001	0	0	0
  26	6.40E-08	5.00E-08	15	0.20001	0	0	0
  27	8.00E-09	5.00E-08	15	0.20001	0	0	0
  28	8.00E-09	5.00E-08	15	0.100005	0	0	0
  29	4.00E-08	5.00E-08	15	0.20001	0	0	0
  30	8.00E-09	5.00E-08	15	0.20001	0	0	0
  31	8.00E-09	5.00E-08	15	0.20001	0	0	0
  32	8.00E-09	5.00E-08	15	0.100005	0	0	0
  33	8.00E-09	5.00E-08	15	0.100005	0	0	0
  34	8.00E-09	5.00E-08	15	0.20001	0	0	0
  35	1.60E-08	5.00E-08	15	0.20001	0	0	0
  36	8.00E-09	5.00E-08	15	0.100005	0	0	0
  37	8.00E-09	5.00E-08	15	0.100005	0	0	0
  38	1.60E-08	5.00E-08	15	0.100005	0	0	0
  39	1.60E-08	5.00E-08	15	0.100005	0	0	0
  40	8.00E-09	5.00E-08	15	0.100005	0	0	0
  41	8.00E-09	5.00E-08	15	0.100005	0	0	0
  42	1.60E-08	5.00E-08	15	0.20001	0	0	0
  43	4.00E-08	5.00E-08	15	0.20001	0	0	0
  44	4.00E-08	5.00E-08	15	0.20001	0	0	0
  45	1.60E-08	5.00E-08	15	0.20001	0	0	0
  46	8.00E-09	5.00E-08	15	0.100005	0	0	0
  47	6.40E-08	5.00E-08	15	0.20001	0	0	0
  48	6.40E-08	5.00E-08	15	0.20001	0	0	0
  49	6.40E-08	5.00E-08	15	0.20001	0	0	0
  50	6.40E-08	5.00E-08	15	0.20001	0	0	0
END	PERIOD								
									
BEGIN	PERIOD	3							
#	uzfid	finf	pet	extdp	extwc	ha	hroot	rootact			
  1	1.00E-08	5.00E-08	15	0.100005	0	0	0
  2	2.00E-08	5.00E-08	15	0.100005	0	0	0
  3	2.00E-08	5.00E-08	15	0.20001	0	0	0
  4	5.00E-08	5.00E-08	15	0.20001	0	0	0
  5	5.00E-08	5.00E-08	15	0.20001	0	0	0
  6	2.00E-08	5.00E-08	15	0.100005	0	0	0
  7	2.00E-08	5.00E-08	15	0.100005	0	0	0
  8	1.00E-08	5.00E-08	15	0.100005	0	0	0
  9	1.00E-08	5.00E-08	15	0.100005	0	0	0
  10	2.00E-08	5.00E-08	15	0.20001	0	0	0
  11	5.00E-08	5.00E-08	15	0.20001	0	0	0
  12	5.00E-08	5.00E-08	15	0.20001	0	0	0
  13	5.00E-08	5.00E-08	15	0.20001	0	0	0
  14	2.00E-08	5.00E-08	15	0.100005	0	0	0
  15	2.00E-08	5.00E-08	15	0.100005	0	0	0
  16	1.00E-08	5.00E-08	15	0.100005	0	0	0
  17	1.00E-08	5.00E-08	15	0.100005	0	0	0
  18	2.00E-08	5.00E-08	15	0.20001	0	0	0
  19	5.00E-08	5.00E-08	15	0.20001	0	0	0
  20	5.00E-08	5.00E-08	15	0.20001	0	0	0
  21	5.00E-08	5.00E-08	15	0.20001	0	0	0
  22	2.00E-08	5.00E-08	15	0.100005	0	0	0
  23	2.00E-08	5.00E-08	15	0.100005	0	0	0
  24	1.00E-08	5.00E-08	15	0.100005	0	0	0
  25	5.00E-08	5.00E-08	15	0.20001	0	0	0
  26	8.00E-08	5.00E-08	15	0.20001	0	0	0
  27	1.00E-08	5.00E-08	15	0.20001	0	0	0
  28	1.00E-08	5.00E-08	15	0.100005	0	0	0
  29	5.00E-08	5.00E-08	15	0.20001	0	0	0
  30	1.00E-08	5.00E-08	15	0.20001	0	0	0
  31	1.00E-08	5.00E-08	15	0.20001	0	0	0
  32	1.00E-08	5.00E-08	15	0.100005	0	0	0
  33	1.00E-08	5.00E-08	15	0.100005	0	0	0
  34	1.00E-08	5.00E-08	15	0.20001	0	0	0
  35	2.00E-08	5.00E-08	15	0.20001	0	0	0
  36	1.00E-08	5.00E-08	15	0.100005	0	0	0
  37	1.00E-08	5.00E-08	15	0.100005	0	0	0
  38	2.00E-08	5.00E-08	15	0.100005	0	0	0
  39	2.00E-08	5.00E-08	15	0.100005	0	0	0
  40	1.00E-08	5.00E-08	15	0.100005	0	0	0
  41	1.00E-08	5.00E-08	15	0.100005	0	0	0
  42	2.00E-08	5.00E-08	15	0.20001	0	0	0
  43	5.00E-08	5.00E-08	15	0.20001	0	0	0
  44	5.00E-08	5.00E-08	15	0.20001	0	0	0
  45	2.00E-08	5.00E-08	15	0.20001	0	0	0
  46	1.00E-08	5.00E-08	15	0.100005	0	0	0
  47	8.00E-08	5.00E-08	15	0.20001	0	0	0
  48	8.00E-08	5.00E-08	15	0.20001	0	0	0
  49	8.00E-08	5.00E-08	15	0.20001	0	0	0
  50	8.00E-08	5.00E-08	15	0.20001	0	0	0
END	PERIOD								
									
BEGIN	PERIOD	4							
#	uzfid	finf	pet	extdp	extwc	ha	hroot	rootact			
  1	4.00E-08	5.00E-08	15	0.100005	0	0	0
  2	8.00E-08	5.00E-08	15	0.100005	0	0	0
  3	8.00E-08	5.00E-08	15	0.20001	0	0	0
  4	2.00E-07	5.00E-08	15	0.20001	0	0	0
  5	2.00E-07	5.00E-08	15	0.20001	0	0	0
  6	8.00E-08	5.00E-08	15	0.100005	0	0	0
  7	8.00E-08	5.00E-08	15	0.100005	0	0	0
  8	4.00E-08	5.00E-08	15	0.100005	0	0	0
  9	4.00E-08	5.00E-08	15	0.100005	0	0	0
  10	8.00E-08	5.00E-08	15	0.20001	0	0	0
  11	2.00E-07	5.00E-08	15	0.20001	0	0	0
  12	2.00E-07	5.00E-08	15	0.20001	0	0	0
  13	2.00E-07	5.00E-08	15	0.20001	0	0	0
  14	8.00E-08	5.00E-08	15	0.100005	0	0	0
  15	8.00E-08	5.00E-08	15	0.100005	0	0	0
  16	4.00E-08	5.00E-08	15	0.100005	0	0	0
  17	4.00E-08	5.00E-08	15	0.100005	0	0	0
  18	8.00E-08	5.00E-08	15	0.20001	0	0	0
  19	2.00E-07	5.00E-08	15	0.20001	0	0	0
  20	2.00E-07	5.00E-08	15	0.20001	0	0	0
  21	2.00E-07	5.00E-08	15	0.20001	0	0	0
  22	8.00E-08	5.00E-08	15	0.100005	0	0	0
  23	8.00E-08	5.00E-08	15	0.100005	0	0	0
  24	4.00E-08	5.00E-08	15	0.100005	0	0	0
  25	2.00E-07	5.00E-08	15	0.20001	0	0	0
  26	3.20E-07	5.00E-08	15	0.20001	0	0	0
  27	4.00E-08	5.00E-08	15	0.20001	0	0	0
  28	4.00E-08	5.00E-08	15	0.100005	0	0	0
  29	2.00E-07	5.00E-08	15	0.20001	0	0	0
  30	4.00E-08	5.00E-08	15	0.20001	0	0	0
  31	4.00E-08	5.00E-08	15	0.20001	0	0	0
  32	4.00E-08	5.00E-08	15	0.100005	0	0	0
  33	4.00E-08	5.00E-08	15	0.100005	0	0	0
  34	4.00E-08	5.00E-08	15	0.20001	0	0	0
  35	8.00E-08	5.00E-08	15	0.20001	0	0	0
  36	4.00E-08	5.00E-08	15	0.100005	0	0	0
  37	4.00E-08	5.00E-08	15	0.100005	0	0	0
  38	8.00E-08	5.00E-08	15	0.100005	0	0	0
  39	8.00E-08	5.00E-08	15	0.100005	0	0	0
  40	4.00E-08	5.00E-08	15	0.100005	0	0	0
  41	4.00E-08	5.00E-08	15	0.100005	0	0	0
  42	8.00E-08	5.00E-08	15	0.20001	0	0	0
  43	2.00E-07	5.00E-08	15	0.20001	0	0	0
  44	2.00E-07	5.00E-08	15	0.20001	0	0	0
  45	8.00E-08	5.00E-08	15	0.20001	0	0	0
  46	4.00E-08	5.00E-08	15	0.100005	0	0	0
  47	3.20E-07	5.00E-08	15	0.20001	0	0	0
  48	3.20E-07	5.00E-08	15	0.20001	0	0	0
  49	3.20E-07	5.00E-08	15	0.20001	0	0	0
  50	3.20E-07	5.00E-08	15	0.20001	0	0	0
END	PERIOD								
									
BEGIN	PERIOD	5							
#	uzfid	finf	pet	extdp	extwc	ha	hroot	rootact			
  1	5.00E-08	5.00E-08	15	0.100005	0	0	0
  2	1.00E-07	5.00E-08	15	0.100005	0	0	0
  3	1.00E-07	5.00E-08	15	0.20001	0	0	0
  4	2.50E-07	5.00E-08	15	0.20001	0	0	0
  5	2.50E-07	5.00E-08	15	0.20001	0	0	0
  6	1.00E-07	5.00E-08	15	0.100005	0	0	0
  7	1.00E-07	5.00E-08	15	0.100005	0	0	0
  8	5.00E-08	5.00E-08	15	0.100005	0	0	0
  9	5.00E-08	5.00E-08	15	0.100005	0	0	0
  10	1.00E-07	5.00E-08	15	0.20001	0	0	0
  11	2.50E-07	5.00E-08	15	0.20001	0	0	0
  12	2.50E-07	5.00E-08	15	0.20001	0	0	0
  13	2.50E-07	5.00E-08	15	0.20001	0	0	0
  14	1.00E-07	5.00E-08	15	0.100005	0	0	0
  15	1.00E-07	5.00E-08	15	0.100005	0	0	0
  16	5.00E-08	5.00E-08	15	0.100005	0	0	0
  17	5.00E-08	5.00E-08	15	0.100005	0	0	0
  18	1.00E-07	5.00E-08	15	0.20001	0	0	0
  19	2.50E-07	5.00E-08	15	0.20001	0	0	0
  20	2.50E-07	5.00E-08	15	0.20001	0	0	0
  21	2.50E-07	5.00E-08	15	0.20001	0	0	0
  22	1.00E-07	5.00E-08	15	0.100005	0	0	0
  23	1.00E-07	5.00E-08	15	0.100005	0	0	0
  24	5.00E-08	5.00E-08	15	0.100005	0	0	0
  25	2.50E-07	5.00E-08	15	0.20001	0	0	0
  26	4.00E-07	5.00E-08	15	0.20001	0	0	0
  27	5.00E-08	5.00E-08	15	0.20001	0	0	0
  28	5.00E-08	5.00E-08	15	0.100005	0	0	0
  29	2.50E-07	5.00E-08	15	0.20001	0	0	0
  30	5.00E-08	5.00E-08	15	0.20001	0	0	0
  31	5.00E-08	5.00E-08	15	0.20001	0	0	0
  32	5.00E-08	5.00E-08	15	0.100005	0	0	0
  33	5.00E-08	5.00E-08	15	0.100005	0	0	0
  34	5.00E-08	5.00E-08	15	0.20001	0	0	0
  35	1.00E-07	5.00E-08	15	0.20001	0	0	0
  36	5.00E-08	5.00E-08	15	0.100005	0	0	0
  37	5.00E-08	5.00E-08	15	0.100005	0	0	0
  38	1.00E-07	5.00E-08	15	0.100005	0	0	0
  39	1.00E-07	5.00E-08	15	0.100005	0	0	0
  40	5.00E-08	5.00E-08	15	0.100005	0	0	0
  41	5.00E-08	5.00E-08	15	0.100005	0	0	0
  42	1.00E-07	5.00E-08	15	0.20001	0	0	0
  43	2.50E-07	5.00E-08	15	0.20001	0	0	0
  44	2.50E-07	5.00E-08	15	0.20001	0	0	0
  45	1.00E-07	5.00E-08	15	0.20001	0	0	0
  46	5.00E-08	5.00E-08	15	0.100005	0	0	0
  47	4.00E-07	5.00E-08	15	0.20001	0	0	0
  48	4.00E-07	5.00E-08	15	0.20001	0	0	0
  49	4.00E-07	5.00E-08	15	0.20001	0	0	0
  50	4.00E-07	5.00E-08	15	0.20001	0	0	0
END	PERIOD								
									
BEGIN	PERIOD	6							
#	uzfid	finf	pet	extdp	extwc	ha	hroot	rootact			
  1	8.00E-08	5.00E-08	15	0.100005	0	0	0
  2	1.60E-07	5.00E-08	15	0.100005	0	0	0
  3	1.60E-07	5.00E-08	15	0.20001	0	0	0
  4	4.00E-07	5.00E-08	15	0.20001	0	0	0
  5	4.00E-07	5.00E-08	15	0.20001	0	0	0
  6	1.60E-07	5.00E-08	15	0.100005	0	0	0
  7	1.60E-07	5.00E-08	15	0.100005	0	0	0
  8	8.00E-08	5.00E-08	15	0.100005	0	0	0
  9	8.00E-08	5.00E-08	15	0.100005	0	0	0
  10	1.60E-07	5.00E-08	15	0.20001	0	0	0
  11	4.00E-07	5.00E-08	15	0.20001	0	0	0
  12	4.00E-07	5.00E-08	15	0.20001	0	0	0
  13	4.00E-07	5.00E-08	15	0.20001	0	0	0
  14	1.60E-07	5.00E-08	15	0.100005	0	0	0
  15	1.60E-07	5.00E-08	15	0.100005	0	0	0
  16	8.00E-08	5.00E-08	15	0.100005	0	0	0
  17	8.00E-08	5.00E-08	15	0.100005	0	0	0
  18	1.60E-07	5.00E-08	15	0.20001	0	0	0
  19	4.00E-07	5.00E-08	15	0.20001	0	0	0
  20	4.00E-07	5.00E-08	15	0.20001	0	0	0
  21	4.00E-07	5.00E-08	15	0.20001	0	0	0
  22	1.60E-07	5.00E-08	15	0.100005	0	0	0
  23	1.60E-07	5.00E-08	15	0.100005	0	0	0
  24	8.00E-08	5.00E-08	15	0.100005	0	0	0
  25	4.00E-07	5.00E-08	15	0.20001	0	0	0
  26	6.40E-07	5.00E-08	15	0.20001	0	0	0
  27	8.00E-08	5.00E-08	15	0.20001	0	0	0
  28	8.00E-08	5.00E-08	15	0.100005	0	0	0
  29	4.00E-07	5.00E-08	15	0.20001	0	0	0
  30	8.00E-08	5.00E-08	15	0.20001	0	0	0
  31	8.00E-08	5.00E-08	15	0.20001	0	0	0
  32	8.00E-08	5.00E-08	15	0.100005	0	0	0
  33	8.00E-08	5.00E-08	15	0.100005	0	0	0
  34	8.00E-08	5.00E-08	15	0.20001	0	0	0
  35	1.60E-07	5.00E-08	15	0.20001	0	0	0
  36	8.00E-08	5.00E-08	15	0.100005	0	0	0
  37	8.00E-08	5.00E-08	15	0.100005	0	0	0
  38	1.60E-07	5.00E-08	15	0.100005	0	0	0
  39	1.60E-07	5.00E-08	15	0.100005	0	0	0
  40	8.00E-08	5.00E-08	15	0.100005	0	0	0
  41	8.00E-08	5.00E-08	15	0.100005	0	0	0
  42	1.60E-07	5.00E-08	15	0.20001	0	0	0
  43	4.00E-07	5.00E-08	15	0.20001	0	0	0
  44	4.00E-07	5.00E-08	15	0.20001	0	0	0
  45	1.60E-07	5.00E-08	15	0.20001	0	0	0
  46	8.00E-08	5.00E-08	15	0.100005	0	0	0
  47	6.40E-07	5.00E-08	15	0.20001	0	0	0
  48	6.40E-07	5.00E-08	15	0.20001	0	0	0
  49	6.40E-07	5.00E-08	15	0.20001	0	0	0
  50	6.40E-07	5.00E-08	15	0.20001	0	0	0
END	PERIOD								
									
BEGIN	PERIOD	7							
#	uzfid	finf	pet	extdp	extwc	ha	hroot	rootact			
  1	3.00E-09	5.00E-08	15	0.100005	0	0	0
  2	6.00E-09	5.00E-08	15	0.100005	0	0	0
  3	6.00E-09	5.00E-08	15	0.20001	0	0	0
  4	1.50E-08	5.00E-08	15	0.20001	0	0	0
  5	1.50E-08	5.00E-08	15	0.20001	0	0	0
  6	6.00E-09	5.00E-08	15	0.100005	0	0	0
  7	6.00E-09	5.00E-08	15	0.100005	0	0	0
  8	3.00E-09	5.00E-08	15	0.100005	0	0	0
  9	3.00E-09	5.00E-08	15	0.100005	0	0	0
  10	6.00E-09	5.00E-08	15	0.20001	0	0	0
  11	1.50E-08	5.00E-08	15	0.20001	0	0	0
  12	1.50E-08	5.00E-08	15	0.20001	0	0	0
  13	1.50E-08	5.00E-08	15	0.20001	0	0	0
  14	6.00E-09	5.00E-08	15	0.100005	0	0	0
  15	6.00E-09	5.00E-08	15	0.100005	0	0	0
  16	3.00E-09	5.00E-08	15	0.100005	0	0	0
  17	3.00E-09	5.00E-08	15	0.100005	0	0	0
  18	6.00E-09	5.00E-08	15	0.20001	0	0	0
  19	1.50E-08	5.00E-08	15	0.20001	0	0	0
  20	1.50E-08	5.00E-08	15	0.20001	0	0	0
  21	1.50E-08	5.00E-08	15	0.20001	0	0	0
  22	6.00E-09	5.00E-08	15	0.100005	0	0	0
  23	6.00E-09	5.00E-08	15	0.100005	0	0	0
  24	3.00E-09	5.00E-08	15	0.100005	0	0	0
  25	1.50E-08	5.00E-08	15	0.20001	0	0	0
  26	2.40E-08	5.00E-08	15	0.20001	0	0	0
  27	3.00E-09	5.00E-08	15	0.20001	0	0	0
  28	3.00E-09	5.00E-08	15	0.100005	0	0	0
  29	1.50E-08	5.00E-08	15	0.20001	0	0	0
  30	3.00E-09	5.00E-08	15	0.20001	0	0	0
  31	3.00E-09	5.00E-08	15	0.20001	0	0	0
  32	3.00E-09	5.00E-08	15	0.100005	0	0	0
  33	3.00E-09	5.00E-08	15	0.100005	0	0	0
  34	3.00E-09	5.00E-08	15	0.20001	0	0	0
  35	6.00E-09	5.00E-08	15	0.20001	0	0	0
  36	3.00E-09	5.00E-08	15	0.100005	0	0	0
  37	3.00E-09	5.00E-08	15	0.100005	0	0	0
  38	6.00E-09	5.00E-08	15	0.100005	0	0	0
  39	6.00E-09	5.00E-08	15	0.100005	0	0	0
  40	3.00E-09	5.00E-08	15	0.100005	0	0	0
  41	3.00E-09	5.00E-08	15	0.100005	0	0	0
  42	6.00E-09	5.00E-08	15	0.20001	0	0	0
  43	1.50E-08	5.00E-08	15	0.20001	0	0	0
  44	1.50E-08	5.00E-08	15	0.20001	0	0	0
  45	6.00E-09	5.00E-08	15	0.20001	0	0	0
  46	3.00E-09	5.00E-08	15	0.100005	0	0	0
  47	2.40E-08	5.00E-08	15	0.20001	0	0	0
  48	2.40E-08	5.00E-08	15	0.20001	0	0	0
  49	2.40E-08	5.00E-08	15	0.20001	0	0	0
  50	2.40E-08	5.00E-08	15	0.20001	0	0	0
END	PERIOD								
									
BEGIN	PERIOD	8							
#	uzfid	finf	pet	extdp	extwc	ha	hroot	rootact			
  1	5.00E-09	5.00E-08	15	0.100005	0	0	0
  2	1.00E-08	5.00E-08	15	0.100005	0	0	0
  3	1.00E-08	5.00E-08	15	0.20001	0	0	0
  4	2.50E-08	5.00E-08	15	0.20001	0	0	0
  5	2.50E-08	5.00E-08	15	0.20001	0	0	0
  6	1.00E-08	5.00E-08	15	0.100005	0	0	0
  7	1.00E-08	5.00E-08	15	0.100005	0	0	0
  8	5.00E-09	5.00E-08	15	0.100005	0	0	0
  9	5.00E-09	5.00E-08	15	0.100005	0	0	0
  10	1.00E-08	5.00E-08	15	0.20001	0	0	0
  11	2.50E-08	5.00E-08	15	0.20001	0	0	0
  12	2.50E-08	5.00E-08	15	0.20001	0	0	0
  13	2.50E-08	5.00E-08	15	0.20001	0	0	0
  14	1.00E-08	5.00E-08	15	0.100005	0	0	0
  15	1.00E-08	5.00E-08	15	0.100005	0	0	0
  16	5.00E-09	5.00E-08	15	0.100005	0	0	0
  17	5.00E-09	5.00E-08	15	0.100005	0	0	0
  18	1.00E-08	5.00E-08	15	0.20001	0	0	0
  19	2.50E-08	5.00E-08	15	0.20001	0	0	0
  20	2.50E-08	5.00E-08	15	0.20001	0	0	0
  21	2.50E-08	5.00E-08	15	0.20001	0	0	0
  22	1.00E-08	5.00E-08	15	0.100005	0	0	0
  23	1.00E-08	5.00E-08	15	0.100005	0	0	0
  24	5.00E-09	5.00E-08	15	0.100005	0	0	0
  25	2.50E-08	5.00E-08	15	0.20001	0	0	0
  26	4.00E-08	5.00E-08	15	0.20001	0	0	0
  27	5.00E-09	5.00E-08	15	0.20001	0	0	0
  28	5.00E-09	5.00E-08	15	0.100005	0	0	0
  29	2.50E-08	5.00E-08	15	0.20001	0	0	0
  30	5.00E-09	5.00E-08	15	0.20001	0	0	0
  31	5.00E-09	5.00E-08	15	0.20001	0	0	0
  32	5.00E-09	5.00E-08	15	0.100005	0	0	0
  33	5.00E-09	5.00E-08	15	0.100005	0	0	0
  34	5.00E-09	5.00E-08	15	0.20001	0	0	0
  35	1.00E-08	5.00E-08	15	0.20001	0	0	0
  36	5.00E-09	5.00E-08	15	0.100005	0	0	0
  37	5.00E-09	5.00E-08	15	0.100005	0	0	0
  38	1.00E-08	5.00E-08	15	0.100005	0	0	0
  39	1.00E-08	5.00E-08	15	0.100005	0	0	0
  40	5.00E-09	5.00E-08	15	0.100005	0	0	0
  41	5.00E-09	5.00E-08	15	0.100005	0	0	0
  42	1.00E-08	5.00E-08	15	0.20001	0	0	0
  43	2.50E-08	5.00E-08	15	0.20001	0	0	0
  44	2.50E-08	5.00E-08	15	0.20001	0	0	0
  45	1.00E-08	5.00E-08	15	0.20001	0	0	0
  46	5.00E-09	5.00E-08	15	0.100005	0	0	0
  47	4.00E-08	5.00E-08	15	0.20001	0	0	0
  48	4.00E-08	5.00E-08	15	0.20001	0	0	0
  49	4.00E-08	5.00E-08	15	0.20001	0	0	0
  50	4.00E-08	5.00E-08	15	0.20001	0	0	0
END	PERIOD								
									
BEGIN	PERIOD	9							
#	uzfid	finf	pet	extdp	extwc	ha	hroot	rootact			
  1	3.00E-09	5.00E-08	15	0.100005	0	0	0
  2	6.00E-09	5.00E-08	15	0.100005	0	0	0
  3	6.00E-09	5.00E-08	15	0.20001	0	0	0
  4	1.50E-08	5.00E-08	15	0.20001	0	0	0
  5	1.50E-08	5.00E-08	15	0.20001	0	0	0
  6	6.00E-09	5.00E-08	15	0.100005	0	0	0
  7	6.00E-09	5.00E-08	15	0.100005	0	0	0
  8	3.00E-09	5.00E-08	15	0.100005	0	0	0
  9	3.00E-09	5.00E-08	15	0.100005	0	0	0
  10	6.00E-09	5.00E-08	15	0.20001	0	0	0
  11	1.50E-08	5.00E-08	15	0.20001	0	0	0
  12	1.50E-08	5.00E-08	15	0.20001	0	0	0
  13	1.50E-08	5.00E-08	15	0.20001	0	0	0
  14	6.00E-09	5.00E-08	15	0.100005	0	0	0
  15	6.00E-09	5.00E-08	15	0.100005	0	0	0
  16	3.00E-09	5.00E-08	15	0.100005	0	0	0
  17	3.00E-09	5.00E-08	15	0.100005	0	0	0
  18	6.00E-09	5.00E-08	15	0.20001	0	0	0
  19	1.50E-08	5.00E-08	15	0.20001	0	0	0
  20	1.50E-08	5.00E-08	15	0.20001	0	0	0
  21	1.50E-08	5.00E-08	15	0.20001	0	0	0
  22	6.00E-09	5.00E-08	15	0.100005	0	0	0
  23	6.00E-09	5.00E-08	15	0.100005	0	0	0
  24	3.00E-09	5.00E-08	15	0.100005	0	0	0
  25	1.50E-08	5.00E-08	15	0.20001	0	0	0
  26	2.40E-08	5.00E-08	15	0.20001	0	0	0
  27	3.00E-09	5.00E-08	15	0.20001	0	0	0
  28	3.00E-09	5.00E-08	15	0.100005	0	0	0
  29	1.50E-08	5.00E-08	15	0.20001	0	0	0
  30	3.00E-09	5.00E-08	15	0.20001	0	0	0
  31	3.00E-09	5.00E-08	15	0.20001	0	0	0
  32	3.00E-09	5.00E-08	15	0.100005	0	0	0
  33	3.00E-09	5.00E-08	15	0.100005	0	0	0
  34	3.00E-09	5.00E-08	15	0.20001	0	0	0
  35	6.00E-09	5.00E-08	15	0.20001	0	0	0
  36	3.00E-09	5.00E-08	15	0.100005	0	0	0
  37	3.00E-09	5.00E-08	15	0.100005	0	0	0
  38	6.00E-09	5.00E-08	15	0.100005	0	0	0
  39	6.00E-09	5.00E-08	15	0.100005	0	0	0
  40	3.00E-09	5.00E-08	15	0.100005	0	0	0
  41	3.00E-09	5.00E-08	15	0.100005	0	0	0
  42	6.00E-09	5.00E-08	15	0.20001	0	0	0
  43	1.50E-08	5.00E-08	15	0.20001	0	0	0
  44	1.50E-08	5.00E-08	15	0.20001	0	0	0
  45	6.00E-09	5.00E-08	15	0.20001	0	0	0
  46	3.00E-09	5.00E-08	15	0.100005	0	0	0
  47	2.40E-08	5.00E-08	15	0.20001	0	0	0
  48	2.40E-08	5.00E-08	15	0.20001	0	0	0
  49	2.40E-08	5.00E-08	15	0.20001	0	0	0
  50	2.40E-08	5.00E-08	15	0.20001	0	0	0
END	PERIOD								
									
BEGIN	PERIOD	10							
#	uzfid	finf	pet	extdp	extwc	ha	hroot	rootact			
  1	2.00E-09	5.00E-08	15	0.100005	0	0	0
  2	4.00E-09	5.00E-08	15	0.100005	0	0	0
  3	4.00E-09	5.00E-08	15	0.20001	0	0	0
  4	1.00E-08	5.00E-08	15	0.20001	0	0	0
  5	1.00E-08	5.00E-08	15	0.20001	0	0	0
  6	4.00E-09	5.00E-08	15	0.100005	0	0	0
  7	4.00E-09	5.00E-08	15	0.100005	0	0	0
  8	2.00E-09	5.00E-08	15	0.100005	0	0	0
  9	2.00E-09	5.00E-08	15	0.100005	0	0	0
  10	4.00E-09	5.00E-08	15	0.20001	0	0	0
  11	1.00E-08	5.00E-08	15	0.20001	0	0	0
  12	1.00E-08	5.00E-08	15	0.20001	0	0	0
  13	1.00E-08	5.00E-08	15	0.20001	0	0	0
  14	4.00E-09	5.00E-08	15	0.100005	0	0	0
  15	4.00E-09	5.00E-08	15	0.100005	0	0	0
  16	2.00E-09	5.00E-08	15	0.100005	0	0	0
  17	2.00E-09	5.00E-08	15	0.100005	0	0	0
  18	4.00E-09	5.00E-08	15	0.20001	0	0	0
  19	1.00E-08	5.00E-08	15	0.20001	0	0	0
  20	1.00E-08	5.00E-08	15	0.20001	0	0	0
  21	1.00E-08	5.00E-08	15	0.20001	0	0	0
  22	4.00E-09	5.00E-08	15	0.100005	0	0	0
  23	4.00E-09	5.00E-08	15	0.100005	0	0	0
  24	2.00E-09	5.00E-08	15	0.100005	0	0	0
  25	1.00E-08	5.00E-08	15	0.20001	0	0	0
  26	1.60E-08	5.00E-08	15	0.20001	0	0	0
  27	2.00E-09	5.00E-08	15	0.20001	0	0	0
  28	2.00E-09	5.00E-08	15	0.100005	0	0	0
  29	1.00E-08	5.00E-08	15	0.20001	0	0	0
  30	2.00E-09	5.00E-08	15	0.20001	0	0	0
  31	2.00E-09	5.00E-08	15	0.20001	0	0	0
  32	2.00E-09	5.00E-08	15	0.100005	0	0	0
  33	2.00E-09	5.00E-08	15	0.100005	0	0	0
  34	2.00E-09	5.00E-08	15	0.20001	0	0	0
  35	4.00E-09	5.00E-08	15	0.20001	0	0	0
  36	2.00E-09	5.00E-08	15	0.100005	0	0	0
  37	2.00E-09	5.00E-08	15	0.100005	0	0	0
  38	4.00E-09	5.00E-08	15	0.100005	0	0	0
  39	4.00E-09	5.00E-08	15	0.100005	0	0	0
  40	2.00E-09	5.00E-08	15	0.100005	0	0	0
  41	2.00E-09	5.00E-08	15	0.100005	0	0	0
  42	4.00E-09	5.00E-08	15	0.20001	0	0	0
  43	1.00E-08	5.00E-08	15	0.20001	0	0	0
  44	1.00E-08	5.00E-08	15	0.20001	0	0	0
  45	4.00E-09	5.00E-08	15	0.20001	0	0	0
  46	2.00E-09	5.00E-08	15	0.100005	0	0	0
  47	1.60E-08	5.00E-08	15	0.20001	0	0	0
  48	1.60E-08	5.00E-08	15	0.20001	0	0	0
  49	1.60E-08	5.00E-08	15	0.20001	0	0	0
  50	1.60E-08	5.00E-08	15	0.20001	0	0	0
END	PERIOD								
									
BEGIN	PERIOD	11							
#	uzfid	finf	pet	extdp	extwc	ha	hroot	rootact			
  1	1.00E-09	5.00E-08	15	0.100005	0	0	0
  2	2.00E-09	5.00E-08	15	0.100005	0	0	0
  3	2.00E-09	5.00E-08	15	0.20001	0	0	0
  4	5.00E-09	5.00E-08	15	0.20001	0	0	0
  5	5.00E-09	5.00E-08	15	0.20001	0	0	0
  6	2.00E-09	5.00E-08	15	0.100005	0	0	0
  7	2.00E-09	5.00E-08	15	0.100005	0	0	0
  8	1.00E-09	5.00E-08	15	0.100005	0	0	0
  9	1.00E-09	5.00E-08	15	0.100005	0	0	0
  10	2.00E-09	5.00E-08	15	0.20001	0	0	0
  11	5.00E-09	5.00E-08	15	0.20001	0	0	0
  12	5.00E-09	5.00E-08	15	0.20001	0	0	0
  13	5.00E-09	5.00E-08	15	0.20001	0	0	0
  14	2.00E-09	5.00E-08	15	0.100005	0	0	0
  15	2.00E-09	5.00E-08	15	0.100005	0	0	0
  16	1.00E-09	5.00E-08	15	0.100005	0	0	0
  17	1.00E-09	5.00E-08	15	0.100005	0	0	0
  18	2.00E-09	5.00E-08	15	0.20001	0	0	0
  19	5.00E-09	5.00E-08	15	0.20001	0	0	0
  20	5.00E-09	5.00E-08	15	0.20001	0	0	0
  21	5.00E-09	5.00E-08	15	0.20001	0	0	0
  22	2.00E-09	5.00E-08	15	0.100005	0	0	0
  23	2.00E-09	5.00E-08	15	0.100005	0	0	0
  24	1.00E-09	5.00E-08	15	0.100005	0	0	0
  25	5.00E-09	5.00E-08	15	0.20001	0	0	0
  26	8.00E-09	5.00E-08	15	0.20001	0	0	0
  27	1.00E-09	5.00E-08	15	0.20001	0	0	0
  28	1.00E-09	5.00E-08	15	0.100005	0	0	0
  29	5.00E-09	5.00E-08	15	0.20001	0	0	0
  30	1.00E-09	5.00E-08	15	0.20001	0	0	0
  31	1.00E-09	5.00E-08	15	0.20001	0	0	0
  32	1.00E-09	5.00E-08	15	0.100005	0	0	0
  33	1.00E-09	5.00E-08	15	0.100005	0	0	0
  34	1.00E-09	5.00E-08	15	0.20001	0	0	0
  35	2.00E-09	5.00E-08	15	0.20001	0	0	0
  36	1.00E-09	5.00E-08	15	0.100005	0	0	0
  37	1.00E-09	5.00E-08	15	0.100005	0	0	0
  38	2.00E-09	5.00E-08	15	0.100005	0	0	0
  39	2.00E-09	5.00E-08	15	0.100005	0	0	0
  40	1.00E-09	5.00E-08	15	0.100005	0	0	0
  41	1.00E-09	5.00E-08	15	0.100005	0	0	0
  42	2.00E-09	5.00E-08	15	0.20001	0	0	0
  43	5.00E-09	5.00E-08	15	0.20001	0	0	0
  44	5.00E-09	5.00E-08	15	0.20001	0	0	0
  45	2.00E-09	5.00E-08	15	0.20001	0	0	0
  46	1.00E-09	5.00E-08	15	0.100005	0	0	0
  47	8.00E-09	5.00E-08	15	0.20001	0	0	0
  48	8.00E-09	5.00E-08	15	0.20001	0	0	0
  49	8.00E-09	5.00E-08	15	0.20001	0	0	0
  50	8.00E-09	5.00E-08	15	0.20001	0	0	0
END	PERIOD								
									
BEGIN	PERIOD	12							
#	uzfid	finf	pet	extdp	extwc	ha	hroot	rootact			
  1	1.00E-09	5.00E-08	15	0.100005	0	0	0
  2	2.00E-09	5.00E-08	15	0.100005	0	0	0
  3	2.00E-09	5.00E-08	15	0.20001	0	0	0
  4	5.00E-09	5.00E-08	15	0.20001	0	0	0
  5	5.00E-09	5.00E-08	15	0.20001	0	0	0
  6	2.00E-09	5.00E-08	15	0.100005	0	0	0
  7	2.00E-09	5.00E-08	15	0.100005	0	0	0
  8	1.00E-09	5.00E-08	15	0.100005	0	0	0
  9	1.00E-09	5.00E-08	15	0.100005	0	0	0
  10	2.00E-09	5.00E-08	15	0.20001	0	0	0
  11	5.00E-09	5.00E-08	15	0.20001	0	0	0
  12	5.00E-09	5.00E-08	15	0.20001	0	0	0
  13	5.00E-09	5.00E-08	15	0.20001	0	0	0
  14	2.00E-09	5.00E-08	15	0.100005	0	0	0
  15	2.00E-09	5.00E-08	15	0.100005	0	0	0
  16	1.00E-09	5.00E-08	15	0.100005	0	0	0
  17	1.00E-09	5.00E-08	15	0.100005	0	0	0
  18	2.00E-09	5.00E-08	15	0.20001	0	0	0
  19	5.00E-09	5.00E-08	15	0.20001	0	0	0
  20	5.00E-09	5.00E-08	15	0.20001	0	0	0
  21	5.00E-09	5.00E-08	15	0.20001	0	0	0
  22	2.00E-09	5.00E-08	15	0.100005	0	0	0
  23	2.00E-09	5.00E-08	15	0.100005	0	0	0
  24	1.00E-09	5.00E-08	15	0.100005	0	0	0
  25	5.00E-09	5.00E-08	15	0.20001	0	0	0
  26	8.00E-09	5.00E-08	15	0.20001	0	0	0
  27	1.00E-09	5.00E-08	15	0.20001	0	0	0
  28	1.00E-09	5.00E-08	15	0.100005	0	0	0
  29	5.00E-09	5.00E-08	15	0.20001	0	0	0
  30	1.00E-09	5.00E-08	15	0.20001	0	0	0
  31	1.00E-09	5.00E-08	15	0.20001	0	0	0
  32	1.00E-09	5.00E-08	15	0.100005	0	0	0
  33	1.00E-09	5.00E-08	15	0.100005	0	0	0
  34	1.00E-09	5.00E-08	15	0.20001	0	0	0
  35	2.00E-09	5.00E-08	15	0.20001	0	0	0
  36	1.00E-09	5.00E-08	15	0.100005	0	0	0
  37	1.00E-09	5.00E-08	15	0.100005	0	0	0
  38	2.00E-09	5.00E-08	15	0.100005	0	0	0
  39	2.00E-09	5.00E-08	15	0.100005	0	0	0
  40	1.00E-09	5.00E-08	15	0.100005	0	0	0
  41	1.00E-09	5.00E-08	15	0.100005	0	0	0
  42	2.00E-09	5.00E-08	15	0.20001	0	0	0
  43	5.00E-09	5.00E-08	15	0.20001	0	0	0
  44	5.00E-09	5.00E-08	15	0.20001	0	0	0
  45	2.00E-09	5.00E-08	15	0.20001	0	0	0
  46	1.00E-09	5.00E-08	15	0.100005	0	0	0
  47	8.00E-09	5.00E-08	15	0.20001	0	0	0
  48	8.00E-09	5.00E-08	15	0.20001	0	0	0
  49	8.00E-09	5.00E-08	15	0.20001	0	0	0
  50	8.00E-09	5.00E-08	15	0.20001	0	0	0
END	PERIOD																		
