# Multi-node well 2 (MNW2) file for MODFLOW, generated by Flopy
         2        -1         2 
pw-1          -1
THIEM          0         0         0         0
      0.15
       -50     -514.9         51         51
pw-2          -1
THIEM          0         0         0         0
      0.15
       -50     -514.9         51         51
         2
pw-1      -1767
pw-2      -2767
         2
pw-1      -1767
pw-2      -1767
         2
pw-1      -2767
pw-2      -2767
