# LPF for MODFLOW, generated by Flopy.
        53    -1E+30         0         CONSTANTCV NOCVCORRECTION 
         1         1         1         1         1         1         1         1         1         1         1         1         1         1         1         1         1         1         1         1         1         1         1         1         1         1         1         1         1         1         1         1         1         1         1         1         1         1         1         1         1
         0         0         0         0         0         0         0         0         0         0         0         0         0         0         0         0         0         0         0         0         0         0         0         0         0         0         0         0         0         0         0         0         0         0         0         0         0         0         0         0         0
         1         1         1         1         1         1         1         1         1         1         1         1         1         1         1         1         1         1         1         1         1         1         1         1         1         1         1         1         1         1         1         1         1         1         1         1         1         1         1         1         1
         0         0         0         0         0         0         0         0         0         0         0         0         0         0         0         0         0         0         0         0         0         0         0         0         0         0         0         0         0         0         0         0         0         0         0         0         0         0         0         0         0
         0         0         0         0         0         0         0         0         0         0         0         0         0         0         0         0         0         0         0         0         0         0         0         0         0         0         0         0         0         0         0         0         0         0         0         0         0         0         0         0         0
CONSTANT    2.500000E+02                           #hk Layer 1                    
CONSTANT    5.000000E+01                           #vka Layer 1                   
CONSTANT    2.500000E+02                           #hk Layer 2                    
CONSTANT    5.000000E+01                           #vka Layer 2                   
CONSTANT    2.500000E+02                           #hk Layer 3                    
CONSTANT    5.000000E+01                           #vka Layer 3                   
CONSTANT    2.500000E+02                           #hk Layer 4                    
CONSTANT    5.000000E+01                           #vka Layer 4                   
CONSTANT    2.500000E+02                           #hk Layer 5                    
CONSTANT    5.000000E+01                           #vka Layer 5                   
CONSTANT    2.500000E+02                           #hk Layer 6                    
CONSTANT    5.000000E+01                           #vka Layer 6                   
CONSTANT    2.500000E+02                           #hk Layer 7                    
CONSTANT    5.000000E+01                           #vka Layer 7                   
CONSTANT    2.500000E+02                           #hk Layer 8                    
CONSTANT    5.000000E+01                           #vka Layer 8                   
CONSTANT    2.500000E+02                           #hk Layer 9                    
CONSTANT    5.000000E+01                           #vka Layer 9                   
CONSTANT    2.500000E+02                           #hk Layer 10                   
CONSTANT    5.000000E+01                           #vka Layer 10                   
CONSTANT    2.500000E+02                           #hk Layer 11                   
CONSTANT    5.000000E+01                           #vka Layer 11                   
CONSTANT    2.500000E+02                           #hk Layer 12                   
CONSTANT    5.000000E+01                           #vka Layer 12                   
CONSTANT    2.500000E+02                           #hk Layer 13                   
CONSTANT    5.000000E+01                           #vka Layer 13                   
CONSTANT    2.500000E+02                           #hk Layer 14                   
CONSTANT    5.000000E+01                           #vka Layer 14                  
CONSTANT    2.500000E+02                           #hk Layer 15                   
CONSTANT    5.000000E+01                           #vka Layer 15                  
CONSTANT    2.500000E+02                           #hk Layer 16                   
CONSTANT    5.000000E+01                           #vka Layer 16                  
CONSTANT    2.500000E+02                           #hk Layer 17                   
CONSTANT    5.000000E+01                           #vka Layer 17                  
CONSTANT    2.500000E+02                           #hk Layer 18                   
CONSTANT    5.000000E+01                           #vka Layer 18                  
CONSTANT    2.500000E+02                           #hk Layer 19                   
CONSTANT    5.000000E+01                           #vka Layer 19                  
CONSTANT    2.500000E+02                           #hk Layer 20                   
CONSTANT    5.000000E+01                           #vka Layer 20                  
CONSTANT    2.500000E+02                           #hk Layer 21                   
CONSTANT    5.000000E+01                           #vka Layer 21                  
CONSTANT    2.500000E+02                           #hk Layer 22                   
CONSTANT    5.000000E+01                           #vka Layer 22                  
CONSTANT    2.500000E+02                           #hk Layer 23                   
CONSTANT    5.000000E+01                           #vka Layer 23                  
CONSTANT    2.500000E+02                           #hk Layer 24                   
CONSTANT    5.000000E+01                           #vka Layer 24                  
CONSTANT    2.500000E+02                           #hk Layer 25                   
CONSTANT    5.000000E+01                           #vka Layer 25                  
CONSTANT    2.500000E+02                           #hk Layer 26                   
CONSTANT    5.000000E+01                           #vka Layer 26                  
CONSTANT    2.500000E+02                           #hk Layer 27                   
CONSTANT    5.000000E+01                           #vka Layer 27                  
CONSTANT    2.500000E+02                           #hk Layer 28                   
CONSTANT    5.000000E+01                           #vka Layer 28                  
CONSTANT    2.500000E+02                           #hk Layer 29                   
CONSTANT    5.000000E+01                           #vka Layer 29                  
CONSTANT    2.500000E+02                           #hk Layer 30                   
CONSTANT    5.000000E+01                           #vka Layer 30                  
CONSTANT    2.500000E+02                           #hk Layer 31                   
CONSTANT    5.000000E+01                           #vka Layer 31                  
CONSTANT    2.500000E+02                           #hk Layer 32                   
CONSTANT    5.000000E+01                           #vka Layer 32                  
CONSTANT    2.500000E+02                           #hk Layer 33                   
CONSTANT    5.000000E+01                           #vka Layer 33                  
CONSTANT    2.500000E+02                           #hk Layer 34                   
CONSTANT    5.000000E+01                           #vka Layer 34                  
CONSTANT    2.500000E+02                           #hk Layer 35                   
CONSTANT    5.000000E+01                           #vka Layer 35                  
CONSTANT    2.500000E+02                           #hk Layer 36                   
CONSTANT    5.000000E+01                           #vka Layer 36                  
CONSTANT    2.500000E+02                           #hk Layer 37                   
CONSTANT    5.000000E+01                           #vka Layer 37                  
CONSTANT    2.500000E+02                           #hk Layer 38                   
CONSTANT    5.000000E+01                           #vka Layer 38                  
CONSTANT    2.500000E+02                           #hk Layer 39                   
CONSTANT    5.000000E+01                           #vka Layer 39                  
CONSTANT    2.500000E+02                           #hk Layer 40                   
CONSTANT    5.000000E+01                           #vka Layer 40                  
CONSTANT    2.500000E+02                           #hk Layer 41                   
CONSTANT    5.000000E+01                           #vka Layer 41                  
