# PCG for MODFLOW, generated by Flopy.
50 200 1 0
1e-02 1e-03 0.99 0 1 0 1.0 

1e-07 1e-04 0.99 0 1 0 1.0 

