# Output control package file for MODFLOW, generated by Flopy.
HEAD PRINT FORMAT   0
HEAD SAVE UNIT    51
DRAWDOWN PRINT FORMAT   0
COMPACT BUDGET FILES
period 1 step 1 
save head
print budget
save budget

