# TDIS6 input file, prepared by MF5to6 on 6/8/2017 at 12:33:24.

BEGIN Options
  TIME_UNITS DAYS
END Options

BEGIN Dimensions
  NPER 3
END Dimensions

BEGIN PERIODDATA
    100.00000             100    1.0000000      Items: PERLEN NSTP TSMULT
    100.00000             100    1.0000000      Items: PERLEN NSTP TSMULT
    200.00000             200    1.0000000      Items: PERLEN NSTP TSMULT
END PERIODDATA
