begin options
  digits 16
  print_input
end options

begin Continuous FILEOUT mf6.csv
  GW1  head 1 1  1
  GW2  head 1 1  3
  GW3  head 1 1  6
  GW4  head 1 1  9
  GW5  head 1 1 12
  GW6  head 1 1 15
  GW7  head 1 1 18
  GW8  head 1 1 21
end Continuous
