# SFR6 input file, prepared by MF5to6 on 6/8/2017 at 12:33:24.

BEGIN Options 
  PRINT_INPUT
  PRINT_STAGE
  PRINT_FLOWS
  SAVE_FLOWS
  MAXIMUM_DEPTH_CHANGE   0.10000000E-03
  UNIT_CONVERSION    86400.000  
  OBS6 FILEIN mf6.sfr.obs6  
  TS6 FILEIN mf6_sfr_manning.ts
END Options

BEGIN Dimensions
  NREACHES  21
END Dimensions

BEGIN PACKAGEDATA
  # rno cellid rlen           rwid            rgrd            rbtp            rbth            rbhk             man        ncon  ustrf  ndv
   1 1 1  1    500.0000        10.00000       0.9523809E-04   0.9761904        1.000000        1.000000        man1          1  1.0000  0
   2 1 1  2    500.0000        10.00000       0.9523809E-04   0.9285715        1.000000        1.000000        man1          2  1.0000  0
   3 1 1  3    500.0000        10.00000       0.9523809E-04   0.8809524        1.000000        1.000000        man1          2  1.0000  0
   4 1 1  4    500.0000        10.00000       0.9523809E-04   0.8333333        1.000000        1.000000        man1          2  1.0000  0
   5 1 1  5    500.0000        10.00000       0.9523809E-04   0.7857143        1.000000        1.000000        man1          2  1.0000  0
   6 1 1  6    500.0000        10.00000       0.9523809E-04   0.7380953        1.000000        1.000000        man1          2  1.0000  0
   7 1 1  7    500.0000        10.00000       0.9523809E-04   0.6904762        1.000000        1.000000        man1          2  1.0000  0
   8 1 1  8    500.0000        10.00000       0.9523809E-04   0.6428571        1.000000        1.000000        man1          2  1.0000  0
   9 1 1  9    500.0000        10.00000       0.9523809E-04   0.5952381        1.000000        1.000000        man1          2  1.0000  0
  10 1 1 10    500.0000        10.00000       0.9523809E-04   0.5476190        1.000000        1.000000        man1          2  1.0000  0
  11 1 1 11    500.0000        10.00000       0.9523809E-04   0.5000000        1.000000        1.000000        man1          2  1.0000  0
  12 1 1 12    500.0000        10.00000       0.9523809E-04   0.4523810        1.000000        1.000000        man1          2  1.0000  0
  13 1 1 13    500.0000        10.00000       0.9523809E-04   0.4047619        1.000000        1.000000        man1          2  1.0000  0
  14 1 1 14    500.0000        10.00000       0.9523809E-04   0.3571429        1.000000        1.000000        man1          2  1.0000  0
  15 1 1 15    500.0000        10.00000       0.9523809E-04   0.3095238        1.000000        1.000000        man1          2  1.0000  0
  16 1 1 16    500.0000        10.00000       0.9523809E-04   0.2619048        1.000000        1.000000        man1          2  1.0000  0
  17 1 1 17    500.0000        10.00000       0.9523809E-04   0.2142857        1.000000        1.000000        man1          2  1.0000  0
  18 1 1 18    500.0000        10.00000       0.9523809E-04   0.1666667        1.000000        1.000000        man1          2  1.0000  0
  19 1 1 19    500.0000        10.00000       0.9523809E-04   0.1190476        1.000000        1.000000        man1          2  1.0000  0
  20 1 1 20    500.0000        10.00000       0.9523809E-04   0.7142860E-01    1.000000        1.000000        man1          2  1.0000  0
  21 1 1 21    500.0000        10.00000       0.9523809E-04   0.2380955E-01    1.000000        1.000000        man1          1  1.0000  0
END PACKAGEDATA

BEGIN CONNECTIONDATA
  1 -2
  2 1 -3
  3 2 -4
  4 3 -5
  5 4 -6
  6 5 -7
  7 6 -8
  8 7 -9
  9 8 -10
  10 9 -11
  11 10 -12
  12 11 -13
  13 12 -14
  14 13 -15
  15 14 -16
  16 15 -17
  17 16 -18
  18 17 -19
  19 18 -20
  20 19 -21
  21 20
END CONNECTIONDATA

BEGIN PERIOD 1
  1 inflow   100000.00
END PERIOD

BEGIN PERIOD 2
  1 manning man2
  2 manning man2
  3 manning man2
  4 manning man2
  5 manning man2
  6 manning man2
  7 manning man2
  8 manning man2
  9 manning man2
 10 manning man2
 11 manning man2
 12 manning man2
 13 manning man2
 14 manning man2
 15 manning man2
 16 manning man2
 17 manning man2
 18 manning man2
 19 manning man2
 20 manning man2
 21 manning man2
END PERIOD

BEGIN PERIOD 3
  1 inflow   0.00
  1 manning man2
  2 manning man2
  3 manning man2
  4 manning man2
  5 manning man2
  6 manning man2
  7 manning man2
  8 manning man2
  9 manning man2
 10 manning man2
 11 manning man2
 12 manning man2
 13 manning man2
 14 manning man2
 15 manning man2
 16 manning man2
 17 manning man2
 18 manning man2
 19 manning man2
 20 manning man2
 21 manning man2
END PERIOD
