BEGIN OPTIONS
  NEWTON
END OPTIONS

BEGIN PACKAGES
  DISU6         flow.disu
  IC6           flow.ic
  CHD6          flow.chd
  NPF6          flow.npf
  GNC6          flow.gnc
  OC6           flow.oc
END PACKAGES

