# NPF8 input file, prepared by MF5to6 on 8/5/2016 at 18:32:01.

BEGIN Options
  PERCHED
  VARIABLECV  DEWATERED
  SAVE_FLOWS
END Options

BEGIN GRIDDATA
  Icelltype LAYERED
    CONSTANT  0
  k  LAYERED
    INTERNAL  FACTOR  1.0  IPRN  12
  0.4250000E-04  0.4250000E-04  0.4250000E-04  0.4250000E-04  0.4250000E-04  0.4250000E-04  0.4250000E-04  0.4250000E-04  0.4250000E-04  0.4250000E-04
  0.4250000E-04  0.4250000E-04  0.4250000E-04  0.4250000E-04  0.4250000E-04  0.4250000E-04  0.4250000E-04  0.4250000E-04  0.1350000E-03  0.1350000E-03
  0.1350000E-03  0.1350000E-03  0.1350000E-03  0.1350000E-03  0.1350000E-03  0.1350000E-03  0.1350000E-03  0.1350000E-03  0.1350000E-03  0.1350000E-03
  0.1350000E-03  0.1350000E-03  0.1350000E-03  0.1350000E-03  0.1350000E-03  0.1350000E-03  0.1611000E-02  0.1611000E-02  0.1611000E-02  0.1611000E-02
  0.1611000E-02  0.1611000E-02  0.1611000E-02  0.1611000E-02  0.1611000E-02  0.1611000E-02  0.1611000E-02  0.1611000E-02  0.1611000E-02  0.1611000E-02
  0.1611000E-02  0.1611000E-02  0.1611000E-02  0.1611000E-02  0.1611000E-02  0.1611000E-02  0.1611000E-02  0.1611000E-02  0.1611000E-02  0.1611000E-02
  0.1611000E-02  0.1611000E-02  0.1611000E-02  0.1611000E-02  0.1611000E-02  0.1611000E-02  0.1611000E-02  0.1611000E-02  0.1611000E-02  0.1611000E-02
  0.1611000E-02  0.1611000E-02  0.1611000E-02  0.1611000E-02  0.1611000E-02  0.1611000E-02  0.1611000E-02  0.1611000E-02  0.1350000E-03  0.1350000E-03
  0.1350000E-03  0.1350000E-03  0.1350000E-03  0.1350000E-03  0.1350000E-03  0.1350000E-03  0.1350000E-03  0.1350000E-03  0.1350000E-03  0.1350000E-03
  0.4250000E-04  0.4250000E-04  0.4250000E-04  0.4250000E-04  0.4250000E-04  0.4250000E-04  0.4250000E-04  0.4250000E-04  0.4250000E-04  0.4250000E-04
  0.4250000E-04  0.4250000E-04  0.1350000E-03  0.1350000E-03  0.1350000E-03  0.1350000E-03  0.1350000E-03  0.1350000E-03
  0.4250000E-04  0.4250000E-04  0.4250000E-04  0.4250000E-04  0.4250000E-04  0.4250000E-04  0.4250000E-04  0.4250000E-04  0.4250000E-04  0.4250000E-04
  0.4250000E-04  0.4250000E-04  0.4250000E-04  0.4250000E-04  0.4250000E-04  0.4250000E-04  0.4250000E-04  0.4250000E-04  0.1350000E-03  0.1350000E-03
  0.1350000E-03  0.1350000E-03  0.1350000E-03  0.1350000E-03  0.1350000E-03  0.1350000E-03  0.1350000E-03  0.1350000E-03  0.1350000E-03  0.1350000E-03
  0.1350000E-03  0.1350000E-03  0.1350000E-03  0.1350000E-03  0.1350000E-03  0.1350000E-03  0.1611000E-02  0.1611000E-02  0.1611000E-02  0.1611000E-02
  0.1611000E-02  0.1611000E-02  0.1611000E-02  0.1611000E-02  0.1611000E-02  0.1611000E-02  0.1611000E-02  0.1611000E-02  0.1611000E-02  0.1611000E-02
  0.1611000E-02  0.1611000E-02  0.1611000E-02  0.1611000E-02  0.1611000E-02  0.1611000E-02  0.1611000E-02  0.1611000E-02  0.1611000E-02  0.1611000E-02
  0.1611000E-02  0.1611000E-02  0.1611000E-02  0.1611000E-02  0.1611000E-02  0.1611000E-02  0.1611000E-02  0.1611000E-02  0.1611000E-02  0.1611000E-02
  0.1611000E-02  0.1611000E-02  0.1611000E-02  0.1611000E-02  0.1611000E-02  0.1611000E-02  0.1611000E-02  0.1611000E-02  0.1350000E-03  0.1350000E-03
  0.1350000E-03  0.1350000E-03  0.1350000E-03  0.1350000E-03  0.1350000E-03  0.1350000E-03  0.1350000E-03  0.1350000E-03  0.1350000E-03  0.1350000E-03
  0.4250000E-04  0.4250000E-04  0.4250000E-04  0.4250000E-04  0.4250000E-04  0.4250000E-04  0.4250000E-04  0.4250000E-04  0.4250000E-04  0.4250000E-04
  0.4250000E-04  0.4250000E-04  0.1350000E-03  0.1350000E-03  0.1350000E-03  0.1350000E-03  0.1350000E-03  0.1350000E-03
  0.4250000E-04  0.4250000E-04  0.4250000E-04  0.4250000E-04  0.4250000E-04  0.4250000E-04  0.4250000E-04  0.4250000E-04  0.4250000E-04  0.4250000E-04
  0.4250000E-04  0.4250000E-04  0.4250000E-04  0.4250000E-04  0.4250000E-04  0.4250000E-04  0.4250000E-04  0.4250000E-04  0.1350000E-03  0.1350000E-03
  0.1350000E-03  0.1350000E-03  0.1350000E-03  0.1350000E-03  0.1350000E-03  0.1350000E-03  0.1350000E-03  0.1350000E-03  0.1350000E-03  0.1350000E-03
  0.1350000E-03  0.1350000E-03  0.1350000E-03  0.1350000E-03  0.1350000E-03  0.1350000E-03  0.1611000E-02  0.1611000E-02  0.1611000E-02  0.1611000E-02
  0.1611000E-02  0.1611000E-02  0.1611000E-02  0.1611000E-02  0.1611000E-02  0.1611000E-02  0.1611000E-02  0.1611000E-02  0.1611000E-02  0.1611000E-02
  0.1611000E-02  0.1611000E-02  0.1611000E-02  0.1611000E-02  0.1611000E-02  0.1611000E-02  0.1611000E-02  0.1611000E-02  0.1611000E-02  0.1611000E-02
  0.1611000E-02  0.1611000E-02  0.1611000E-02  0.1611000E-02  0.1611000E-02  0.1611000E-02  0.1611000E-02  0.1611000E-02  0.1611000E-02  0.1611000E-02
  0.1611000E-02  0.1611000E-02  0.1611000E-02  0.1611000E-02  0.1611000E-02  0.1611000E-02  0.1611000E-02  0.1611000E-02  0.1350000E-03  0.1350000E-03
  0.1350000E-03  0.1350000E-03  0.1350000E-03  0.1350000E-03  0.1350000E-03  0.1350000E-03  0.1350000E-03  0.1350000E-03  0.1350000E-03  0.1350000E-03
  0.4250000E-04  0.4250000E-04  0.4250000E-04  0.4250000E-04  0.4250000E-04  0.4250000E-04  0.4250000E-04  0.4250000E-04  0.4250000E-04  0.4250000E-04
  0.4250000E-04  0.4250000E-04  0.1350000E-03  0.1350000E-03  0.1350000E-03  0.1350000E-03  0.1350000E-03  0.1350000E-03
  0.4250000E-04  0.4250000E-04  0.4250000E-04  0.4250000E-04  0.4250000E-04  0.4250000E-04  0.4250000E-04  0.4250000E-04  0.4250000E-04  0.4250000E-04
  0.4250000E-04  0.4250000E-04  0.4250000E-04  0.4250000E-04  0.4250000E-04  0.4250000E-04  0.4250000E-04  0.4250000E-04  0.1350000E-03  0.1350000E-03
  0.1350000E-03  0.1350000E-03  0.1350000E-03  0.1350000E-03  0.1350000E-03  0.1350000E-03  0.1350000E-03  0.1350000E-03  0.1350000E-03  0.1350000E-03
  0.1350000E-03  0.1350000E-03  0.1350000E-03  0.1350000E-03  0.1350000E-03  0.1350000E-03  0.1611000E-02  0.1611000E-02  0.1611000E-02  0.1611000E-02
  0.1611000E-02  0.1611000E-02  0.1611000E-02  0.1611000E-02  0.1611000E-02  0.1611000E-02  0.1611000E-02  0.1611000E-02  0.1611000E-02  0.1611000E-02
  0.1611000E-02  0.1611000E-02  0.1611000E-02  0.1611000E-02  0.1611000E-02  0.1611000E-02  0.1611000E-02  0.1611000E-02  0.1611000E-02  0.1611000E-02
  0.1611000E-02  0.1611000E-02  0.1611000E-02  0.1611000E-02  0.1611000E-02  0.1611000E-02  0.1611000E-02  0.1611000E-02  0.1611000E-02  0.1611000E-02
  0.1611000E-02  0.1611000E-02  0.1611000E-02  0.1611000E-02  0.1611000E-02  0.1611000E-02  0.1611000E-02  0.1611000E-02  0.1350000E-03  0.1350000E-03
  0.1350000E-03  0.1350000E-03  0.1350000E-03  0.1350000E-03  0.1350000E-03  0.1350000E-03  0.1350000E-03  0.1350000E-03  0.1350000E-03  0.1350000E-03
  0.4250000E-04  0.4250000E-04  0.4250000E-04  0.4250000E-04  0.4250000E-04  0.4250000E-04  0.4250000E-04  0.4250000E-04  0.4250000E-04  0.4250000E-04
  0.4250000E-04  0.4250000E-04  0.1350000E-03  0.1350000E-03  0.1350000E-03  0.1350000E-03  0.1350000E-03  0.1350000E-03
  0.4250000E-04  0.4250000E-04  0.4250000E-04  0.4250000E-04  0.4250000E-04  0.4250000E-04  0.4250000E-04  0.4250000E-04  0.4250000E-04  0.4250000E-04
  0.4250000E-04  0.4250000E-04  0.4250000E-04  0.4250000E-04  0.4250000E-04  0.4250000E-04  0.4250000E-04  0.4250000E-04  0.1350000E-03  0.1350000E-03
  0.1350000E-03  0.1350000E-03  0.1350000E-03  0.1350000E-03  0.1350000E-03  0.1350000E-03  0.1350000E-03  0.1350000E-03  0.1350000E-03  0.1350000E-03
  0.1350000E-03  0.1350000E-03  0.1350000E-03  0.1350000E-03  0.1350000E-03  0.1350000E-03  0.1611000E-02  0.1611000E-02  0.1611000E-02  0.1611000E-02
  0.1611000E-02  0.1611000E-02  0.1611000E-02  0.1611000E-02  0.1611000E-02  0.1611000E-02  0.1611000E-02  0.1611000E-02  0.1611000E-02  0.1611000E-02
  0.1611000E-02  0.1611000E-02  0.1611000E-02  0.1611000E-02  0.1611000E-02  0.1611000E-02  0.1611000E-02  0.1611000E-02  0.1611000E-02  0.1611000E-02
  0.1611000E-02  0.1611000E-02  0.1611000E-02  0.1611000E-02  0.1611000E-02  0.1611000E-02  0.1611000E-02  0.1611000E-02  0.1611000E-02  0.1611000E-02
  0.1611000E-02  0.1611000E-02  0.1611000E-02  0.1611000E-02  0.1611000E-02  0.1611000E-02  0.1611000E-02  0.1611000E-02  0.1350000E-03  0.1350000E-03
  0.1350000E-03  0.1350000E-03  0.1350000E-03  0.1350000E-03  0.1350000E-03  0.1350000E-03  0.1350000E-03  0.1350000E-03  0.1350000E-03  0.1350000E-03
  0.4250000E-04  0.4250000E-04  0.4250000E-04  0.4250000E-04  0.4250000E-04  0.4250000E-04  0.4250000E-04  0.4250000E-04  0.4250000E-04  0.4250000E-04
  0.4250000E-04  0.4250000E-04  0.1350000E-03  0.1350000E-03  0.1350000E-03  0.1350000E-03  0.1350000E-03  0.1350000E-03
  0.4250000E-04  0.4250000E-04  0.4250000E-04  0.4250000E-04  0.4250000E-04  0.4250000E-04  0.4250000E-04  0.4250000E-04  0.4250000E-04  0.4250000E-04
  0.4250000E-04  0.4250000E-04  0.1350000E-03  0.1350000E-03  0.1350000E-03  0.1350000E-03  0.1350000E-03  0.1350000E-03  0.1350000E-03  0.1350000E-03
  0.1350000E-03  0.1350000E-03  0.1350000E-03  0.1350000E-03  0.1611000E-02  0.1611000E-02  0.1611000E-02  0.1611000E-02  0.1611000E-02  0.1611000E-02
  0.1611000E-02  0.1611000E-02  0.1611000E-02  0.1611000E-02  0.1611000E-02  0.1611000E-02  0.4306000E-02  0.4306000E-02  0.4306000E-02  0.4306000E-02
  0.4306000E-02  0.4306000E-02  0.4306000E-02  0.4306000E-02  0.4306000E-02  0.4306000E-02  0.4306000E-02  0.4306000E-02  0.4306000E-02  0.4306000E-02
  0.4306000E-02  0.4306000E-02  0.4306000E-02  0.4306000E-02  0.1200000E-01  0.1200000E-01  0.1200000E-01  0.1200000E-01  0.1200000E-01  0.1200000E-01
  0.4306000E-02  0.4306000E-02  0.4306000E-02  0.4306000E-02  0.4306000E-02  0.4306000E-02  0.4306000E-02  0.4306000E-02  0.4306000E-02  0.4306000E-02
  0.4306000E-02  0.4306000E-02  0.1611000E-02  0.1611000E-02  0.1611000E-02  0.1611000E-02  0.1611000E-02  0.1611000E-02  0.1611000E-02  0.1611000E-02
  0.1611000E-02  0.1611000E-02  0.1611000E-02  0.1611000E-02  0.1350000E-03  0.1350000E-03  0.1350000E-03  0.1350000E-03  0.1350000E-03  0.1350000E-03
  0.1350000E-03  0.1350000E-03  0.1350000E-03  0.1350000E-03  0.1350000E-03  0.1350000E-03  0.1350000E-03  0.1350000E-03  0.1350000E-03  0.1350000E-03
  0.1350000E-03  0.1350000E-03  0.1350000E-03  0.1350000E-03  0.1350000E-03  0.1350000E-03  0.1350000E-03  0.1350000E-03
  0.4250000E-04  0.4250000E-04  0.4250000E-04  0.4250000E-04  0.4250000E-04  0.4250000E-04  0.4250000E-04  0.4250000E-04  0.4250000E-04  0.4250000E-04
  0.4250000E-04  0.4250000E-04  0.1350000E-03  0.1350000E-03  0.1350000E-03  0.1350000E-03  0.1350000E-03  0.1350000E-03  0.1350000E-03  0.1350000E-03
  0.1350000E-03  0.1350000E-03  0.1350000E-03  0.1350000E-03  0.1611000E-02  0.1611000E-02  0.1611000E-02  0.1611000E-02  0.1611000E-02  0.1611000E-02
  0.1611000E-02  0.1611000E-02  0.1611000E-02  0.1611000E-02  0.1611000E-02  0.1611000E-02  0.4306000E-02  0.4306000E-02  0.4306000E-02  0.4306000E-02
  0.4306000E-02  0.4306000E-02  0.4306000E-02  0.4306000E-02  0.4306000E-02  0.4306000E-02  0.4306000E-02  0.4306000E-02  0.4306000E-02  0.4306000E-02
  0.4306000E-02  0.4306000E-02  0.4306000E-02  0.4306000E-02  0.1200000E-01  0.1200000E-01  0.1200000E-01  0.1200000E-01  0.1200000E-01  0.1200000E-01
  0.4306000E-02  0.4306000E-02  0.4306000E-02  0.4306000E-02  0.4306000E-02  0.4306000E-02  0.4306000E-02  0.4306000E-02  0.4306000E-02  0.4306000E-02
  0.4306000E-02  0.4306000E-02  0.1611000E-02  0.1611000E-02  0.1611000E-02  0.1611000E-02  0.1611000E-02  0.1611000E-02  0.1611000E-02  0.1611000E-02
  0.1611000E-02  0.1611000E-02  0.1611000E-02  0.1611000E-02  0.1350000E-03  0.1350000E-03  0.1350000E-03  0.1350000E-03  0.1350000E-03  0.1350000E-03
  0.1350000E-03  0.1350000E-03  0.1350000E-03  0.1350000E-03  0.1350000E-03  0.1350000E-03  0.1350000E-03  0.1350000E-03  0.1350000E-03  0.1350000E-03
  0.1350000E-03  0.1350000E-03  0.1350000E-03  0.1350000E-03  0.1350000E-03  0.1350000E-03  0.1350000E-03  0.1350000E-03
  0.4250000E-04  0.4250000E-04  0.4250000E-04  0.4250000E-04  0.4250000E-04  0.4250000E-04  0.4250000E-04  0.4250000E-04  0.4250000E-04  0.4250000E-04
  0.4250000E-04  0.4250000E-04  0.1350000E-03  0.1350000E-03  0.1350000E-03  0.1350000E-03  0.1350000E-03  0.1350000E-03  0.1350000E-03  0.1350000E-03
  0.1350000E-03  0.1350000E-03  0.1350000E-03  0.1350000E-03  0.1611000E-02  0.1611000E-02  0.1611000E-02  0.1611000E-02  0.1611000E-02  0.1611000E-02
  0.1611000E-02  0.1611000E-02  0.1611000E-02  0.1611000E-02  0.1611000E-02  0.1611000E-02  0.4306000E-02  0.4306000E-02  0.4306000E-02  0.4306000E-02
  0.4306000E-02  0.4306000E-02  0.4306000E-02  0.4306000E-02  0.4306000E-02  0.4306000E-02  0.4306000E-02  0.4306000E-02  0.4306000E-02  0.4306000E-02
  0.4306000E-02  0.4306000E-02  0.4306000E-02  0.4306000E-02  0.1200000E-01  0.1200000E-01  0.1200000E-01  0.1200000E-01  0.1200000E-01  0.1200000E-01
  0.4306000E-02  0.4306000E-02  0.4306000E-02  0.4306000E-02  0.4306000E-02  0.4306000E-02  0.4306000E-02  0.4306000E-02  0.4306000E-02  0.4306000E-02
  0.4306000E-02  0.4306000E-02  0.1611000E-02  0.1611000E-02  0.1611000E-02  0.1611000E-02  0.1611000E-02  0.1611000E-02  0.1611000E-02  0.1611000E-02
  0.1611000E-02  0.1611000E-02  0.1611000E-02  0.1611000E-02  0.1350000E-03  0.1350000E-03  0.1350000E-03  0.1350000E-03  0.1350000E-03  0.1350000E-03
  0.1350000E-03  0.1350000E-03  0.1350000E-03  0.1350000E-03  0.1350000E-03  0.1350000E-03  0.1350000E-03  0.1350000E-03  0.1350000E-03  0.1350000E-03
  0.1350000E-03  0.1350000E-03  0.1350000E-03  0.1350000E-03  0.1350000E-03  0.1350000E-03  0.1350000E-03  0.1350000E-03
  0.4250000E-04  0.4250000E-04  0.4250000E-04  0.4250000E-04  0.4250000E-04  0.4250000E-04  0.4250000E-04  0.4250000E-04  0.4250000E-04  0.4250000E-04
  0.4250000E-04  0.4250000E-04  0.1350000E-03  0.1350000E-03  0.1350000E-03  0.1350000E-03  0.1350000E-03  0.1350000E-03  0.1350000E-03  0.1350000E-03
  0.1350000E-03  0.1350000E-03  0.1350000E-03  0.1350000E-03  0.1611000E-02  0.1611000E-02  0.1611000E-02  0.1611000E-02  0.1611000E-02  0.1611000E-02
  0.1611000E-02  0.1611000E-02  0.1611000E-02  0.1611000E-02  0.1611000E-02  0.1611000E-02  0.4306000E-02  0.4306000E-02  0.4306000E-02  0.4306000E-02
  0.4306000E-02  0.4306000E-02  0.4306000E-02  0.4306000E-02  0.4306000E-02  0.4306000E-02  0.4306000E-02  0.4306000E-02  0.4306000E-02  0.4306000E-02
  0.4306000E-02  0.4306000E-02  0.4306000E-02  0.4306000E-02  0.1200000E-01  0.1200000E-01  0.1200000E-01  0.1200000E-01  0.1200000E-01  0.1200000E-01
  0.4306000E-02  0.4306000E-02  0.4306000E-02  0.4306000E-02  0.4306000E-02  0.4306000E-02  0.4306000E-02  0.4306000E-02  0.4306000E-02  0.4306000E-02
  0.4306000E-02  0.4306000E-02  0.1611000E-02  0.1611000E-02  0.1611000E-02  0.1611000E-02  0.1611000E-02  0.1611000E-02  0.1611000E-02  0.1611000E-02
  0.1611000E-02  0.1611000E-02  0.1611000E-02  0.1611000E-02  0.1350000E-03  0.1350000E-03  0.1350000E-03  0.1350000E-03  0.1350000E-03  0.1350000E-03
  0.1350000E-03  0.1350000E-03  0.1350000E-03  0.1350000E-03  0.1350000E-03  0.1350000E-03  0.1350000E-03  0.1350000E-03  0.1350000E-03  0.1350000E-03
  0.1350000E-03  0.1350000E-03  0.1350000E-03  0.1350000E-03  0.1350000E-03  0.1350000E-03  0.1350000E-03  0.1350000E-03
  0.4250000E-04  0.4250000E-04  0.4250000E-04  0.4250000E-04  0.4250000E-04  0.4250000E-04  0.4250000E-04  0.4250000E-04  0.4250000E-04  0.4250000E-04
  0.4250000E-04  0.4250000E-04  0.1350000E-03  0.1350000E-03  0.1350000E-03  0.1350000E-03  0.1350000E-03  0.1350000E-03  0.1350000E-03  0.1350000E-03
  0.1350000E-03  0.1350000E-03  0.1350000E-03  0.1350000E-03  0.1611000E-02  0.1611000E-02  0.1611000E-02  0.1611000E-02  0.1611000E-02  0.1611000E-02
  0.1611000E-02  0.1611000E-02  0.1611000E-02  0.1611000E-02  0.1611000E-02  0.1611000E-02  0.4306000E-02  0.4306000E-02  0.4306000E-02  0.4306000E-02
  0.4306000E-02  0.4306000E-02  0.4306000E-02  0.4306000E-02  0.4306000E-02  0.4306000E-02  0.4306000E-02  0.4306000E-02  0.4306000E-02  0.4306000E-02
  0.4306000E-02  0.4306000E-02  0.4306000E-02  0.4306000E-02  0.1200000E-01  0.1200000E-01  0.1200000E-01  0.1200000E-01  0.1200000E-01  0.1200000E-01
  0.4306000E-02  0.4306000E-02  0.4306000E-02  0.4306000E-02  0.4306000E-02  0.4306000E-02  0.4306000E-02  0.4306000E-02  0.4306000E-02  0.4306000E-02
  0.4306000E-02  0.4306000E-02  0.1611000E-02  0.1611000E-02  0.1611000E-02  0.1611000E-02  0.1611000E-02  0.1611000E-02  0.1611000E-02  0.1611000E-02
  0.1611000E-02  0.1611000E-02  0.1611000E-02  0.1611000E-02  0.1350000E-03  0.1350000E-03  0.1350000E-03  0.1350000E-03  0.1350000E-03  0.1350000E-03
  0.1350000E-03  0.1350000E-03  0.1350000E-03  0.1350000E-03  0.1350000E-03  0.1350000E-03  0.1350000E-03  0.1350000E-03  0.1350000E-03  0.1350000E-03
  0.1350000E-03  0.1350000E-03  0.1350000E-03  0.1350000E-03  0.1350000E-03  0.1350000E-03  0.1350000E-03  0.1350000E-03
  0.1350000E-03  0.1350000E-03  0.1350000E-03  0.1350000E-03  0.1350000E-03  0.1350000E-03  0.1350000E-03  0.1350000E-03  0.1350000E-03  0.1350000E-03
  0.1350000E-03  0.1350000E-03  0.1350000E-03  0.1350000E-03  0.1350000E-03  0.1350000E-03  0.1350000E-03  0.1350000E-03  0.1611000E-02  0.1611000E-02
  0.1611000E-02  0.1611000E-02  0.1611000E-02  0.1611000E-02  0.1611000E-02  0.1611000E-02  0.1611000E-02  0.1611000E-02  0.1611000E-02  0.1611000E-02
  0.4306000E-02  0.4306000E-02  0.4306000E-02  0.4306000E-02  0.4306000E-02  0.4306000E-02  0.4306000E-02  0.4306000E-02  0.4306000E-02  0.4306000E-02
  0.4306000E-02  0.4306000E-02  0.1200000E-01  0.1200000E-01  0.1200000E-01  0.1200000E-01  0.1200000E-01  0.1200000E-01  0.1200000E-01  0.1200000E-01
  0.1200000E-01  0.1200000E-01  0.1200000E-01  0.1200000E-01  0.1200000E-01  0.1200000E-01  0.1200000E-01  0.1200000E-01  0.1200000E-01  0.1200000E-01
  0.1200000E-01  0.1200000E-01  0.1200000E-01  0.1200000E-01  0.1200000E-01  0.1200000E-01  0.1200000E-01  0.1200000E-01  0.1200000E-01  0.1200000E-01
  0.1200000E-01  0.1200000E-01  0.1200000E-01  0.1200000E-01  0.1200000E-01  0.1200000E-01  0.1200000E-01  0.1200000E-01  0.1200000E-01  0.1200000E-01
  0.1200000E-01  0.1200000E-01  0.1200000E-01  0.1200000E-01  0.4306000E-02  0.4306000E-02  0.4306000E-02  0.4306000E-02  0.4306000E-02  0.4306000E-02
  0.4306000E-02  0.4306000E-02  0.4306000E-02  0.4306000E-02  0.4306000E-02  0.4306000E-02  0.1611000E-02  0.1611000E-02  0.1611000E-02  0.1611000E-02
  0.1611000E-02  0.1611000E-02  0.1611000E-02  0.1611000E-02  0.1611000E-02  0.1611000E-02  0.1611000E-02  0.1611000E-02
  0.1350000E-03  0.1350000E-03  0.1350000E-03  0.1350000E-03  0.1350000E-03  0.1350000E-03  0.1350000E-03  0.1350000E-03  0.1350000E-03  0.1350000E-03
  0.1350000E-03  0.1350000E-03  0.1350000E-03  0.1350000E-03  0.1350000E-03  0.1350000E-03  0.1350000E-03  0.1350000E-03  0.1611000E-02  0.1611000E-02
  0.1611000E-02  0.1611000E-02  0.1611000E-02  0.1611000E-02  0.1611000E-02  0.1611000E-02  0.1611000E-02  0.1611000E-02  0.1611000E-02  0.1611000E-02
  0.4306000E-02  0.4306000E-02  0.4306000E-02  0.4306000E-02  0.4306000E-02  0.4306000E-02  0.4306000E-02  0.4306000E-02  0.4306000E-02  0.4306000E-02
  0.4306000E-02  0.4306000E-02  0.1200000E-01  0.1200000E-01  0.1200000E-01  0.1200000E-01  0.1200000E-01  0.1200000E-01  0.1200000E-01  0.1200000E-01
  0.1200000E-01  0.1200000E-01  0.1200000E-01  0.1200000E-01  0.1200000E-01  0.1200000E-01  0.1200000E-01  0.1200000E-01  0.1200000E-01  0.1200000E-01
  0.1200000E-01  0.1200000E-01  0.1200000E-01  0.1200000E-01  0.1200000E-01  0.1200000E-01  0.1200000E-01  0.1200000E-01  0.1200000E-01  0.1200000E-01
  0.1200000E-01  0.1200000E-01  0.1200000E-01  0.1200000E-01  0.1200000E-01  0.1200000E-01  0.1200000E-01  0.1200000E-01  0.1200000E-01  0.1200000E-01
  0.1200000E-01  0.1200000E-01  0.1200000E-01  0.1200000E-01  0.4306000E-02  0.4306000E-02  0.4306000E-02  0.4306000E-02  0.4306000E-02  0.4306000E-02
  0.4306000E-02  0.4306000E-02  0.4306000E-02  0.4306000E-02  0.4306000E-02  0.4306000E-02  0.1611000E-02  0.1611000E-02  0.1611000E-02  0.1611000E-02
  0.1611000E-02  0.1611000E-02  0.1611000E-02  0.1611000E-02  0.1611000E-02  0.1611000E-02  0.1611000E-02  0.1611000E-02
  0.1350000E-03  0.1350000E-03  0.1350000E-03  0.1350000E-03  0.1350000E-03  0.1350000E-03  0.1350000E-03  0.1350000E-03  0.1350000E-03  0.1350000E-03
  0.1350000E-03  0.1350000E-03  0.1350000E-03  0.1350000E-03  0.1350000E-03  0.1350000E-03  0.1350000E-03  0.1350000E-03  0.1611000E-02  0.1611000E-02
  0.1611000E-02  0.1611000E-02  0.1611000E-02  0.1611000E-02  0.1611000E-02  0.1611000E-02  0.1611000E-02  0.1611000E-02  0.1611000E-02  0.1611000E-02
  0.4306000E-02  0.4306000E-02  0.4306000E-02  0.4306000E-02  0.4306000E-02  0.4306000E-02  0.4306000E-02  0.4306000E-02  0.4306000E-02  0.4306000E-02
  0.4306000E-02  0.4306000E-02  0.1200000E-01  0.1200000E-01  0.1200000E-01  0.1200000E-01  0.1200000E-01  0.1200000E-01  0.1200000E-01  0.1200000E-01
  0.1200000E-01  0.1200000E-01  0.1200000E-01  0.1200000E-01  0.1200000E-01  0.1200000E-01  0.1200000E-01  0.1200000E-01  0.1200000E-01  0.1200000E-01
  0.1200000E-01  0.1200000E-01  0.1200000E-01  0.1200000E-01  0.1200000E-01  0.1200000E-01  0.1200000E-01  0.1200000E-01  0.1200000E-01  0.1200000E-01
  0.1200000E-01  0.1200000E-01  0.1200000E-01  0.1200000E-01  0.1200000E-01  0.1200000E-01  0.1200000E-01  0.1200000E-01  0.1200000E-01  0.1200000E-01
  0.1200000E-01  0.1200000E-01  0.1200000E-01  0.1200000E-01  0.4306000E-02  0.4306000E-02  0.4306000E-02  0.4306000E-02  0.4306000E-02  0.4306000E-02
  0.4306000E-02  0.4306000E-02  0.4306000E-02  0.4306000E-02  0.4306000E-02  0.4306000E-02  0.1611000E-02  0.1611000E-02  0.1611000E-02  0.1611000E-02
  0.1611000E-02  0.1611000E-02  0.1611000E-02  0.1611000E-02  0.1611000E-02  0.1611000E-02  0.1611000E-02  0.1611000E-02
  0.1350000E-03  0.1350000E-03  0.1350000E-03  0.1350000E-03  0.1350000E-03  0.1350000E-03  0.1350000E-03  0.1350000E-03  0.1350000E-03  0.1350000E-03
  0.1350000E-03  0.1350000E-03  0.1350000E-03  0.1350000E-03  0.1350000E-03  0.1350000E-03  0.1350000E-03  0.1350000E-03  0.1611000E-02  0.1611000E-02
  0.1611000E-02  0.1611000E-02  0.1611000E-02  0.1611000E-02  0.1611000E-02  0.1611000E-02  0.1611000E-02  0.1611000E-02  0.1611000E-02  0.1611000E-02
  0.4306000E-02  0.4306000E-02  0.4306000E-02  0.4306000E-02  0.4306000E-02  0.4306000E-02  0.4306000E-02  0.4306000E-02  0.4306000E-02  0.4306000E-02
  0.4306000E-02  0.4306000E-02  0.1200000E-01  0.1200000E-01  0.1200000E-01  0.1200000E-01  0.1200000E-01  0.1200000E-01  0.1200000E-01  0.1200000E-01
  0.1200000E-01  0.1200000E-01  0.1200000E-01  0.1200000E-01  0.1200000E-01  0.1200000E-01  0.1200000E-01  0.1200000E-01  0.1200000E-01  0.1200000E-01
  0.1200000E-01  0.1200000E-01  0.1200000E-01  0.1200000E-01  0.1200000E-01  0.1200000E-01  0.1200000E-01  0.1200000E-01  0.1200000E-01  0.1200000E-01
  0.1200000E-01  0.1200000E-01  0.1200000E-01  0.1200000E-01  0.1200000E-01  0.1200000E-01  0.1200000E-01  0.1200000E-01  0.1200000E-01  0.1200000E-01
  0.1200000E-01  0.1200000E-01  0.1200000E-01  0.1200000E-01  0.4306000E-02  0.4306000E-02  0.4306000E-02  0.4306000E-02  0.4306000E-02  0.4306000E-02
  0.4306000E-02  0.4306000E-02  0.4306000E-02  0.4306000E-02  0.4306000E-02  0.4306000E-02  0.1611000E-02  0.1611000E-02  0.1611000E-02  0.1611000E-02
  0.1611000E-02  0.1611000E-02  0.1611000E-02  0.1611000E-02  0.1611000E-02  0.1611000E-02  0.1611000E-02  0.1611000E-02
  0.1350000E-03  0.1350000E-03  0.1350000E-03  0.1350000E-03  0.1350000E-03  0.1350000E-03  0.1350000E-03  0.1350000E-03  0.1350000E-03  0.1350000E-03
  0.1350000E-03  0.1350000E-03  0.1350000E-03  0.1350000E-03  0.1350000E-03  0.1350000E-03  0.1350000E-03  0.1350000E-03  0.1611000E-02  0.1611000E-02
  0.1611000E-02  0.1611000E-02  0.1611000E-02  0.1611000E-02  0.1611000E-02  0.1611000E-02  0.1611000E-02  0.1611000E-02  0.1611000E-02  0.1611000E-02
  0.4306000E-02  0.4306000E-02  0.4306000E-02  0.4306000E-02  0.4306000E-02  0.4306000E-02  0.4306000E-02  0.4306000E-02  0.4306000E-02  0.4306000E-02
  0.4306000E-02  0.4306000E-02  0.1200000E-01  0.1200000E-01  0.1200000E-01  0.1200000E-01  0.1200000E-01  0.1200000E-01  0.1200000E-01  0.1200000E-01
  0.1200000E-01  0.1200000E-01  0.1200000E-01  0.1200000E-01  0.1200000E-01  0.1200000E-01  0.1200000E-01  0.1200000E-01  0.1200000E-01  0.1200000E-01
  0.1200000E-01  0.1200000E-01  0.1200000E-01  0.1200000E-01  0.1200000E-01  0.1200000E-01  0.1200000E-01  0.1200000E-01  0.1200000E-01  0.1200000E-01
  0.1200000E-01  0.1200000E-01  0.1200000E-01  0.1200000E-01  0.1200000E-01  0.1200000E-01  0.1200000E-01  0.1200000E-01  0.1200000E-01  0.1200000E-01
  0.1200000E-01  0.1200000E-01  0.1200000E-01  0.1200000E-01  0.4306000E-02  0.4306000E-02  0.4306000E-02  0.4306000E-02  0.4306000E-02  0.4306000E-02
  0.4306000E-02  0.4306000E-02  0.4306000E-02  0.4306000E-02  0.4306000E-02  0.4306000E-02  0.1611000E-02  0.1611000E-02  0.1611000E-02  0.1611000E-02
  0.1611000E-02  0.1611000E-02  0.1611000E-02  0.1611000E-02  0.1611000E-02  0.1611000E-02  0.1611000E-02  0.1611000E-02
  0.1611000E-02  0.1611000E-02  0.1611000E-02  0.1611000E-02  0.1611000E-02  0.1611000E-02  0.1611000E-02  0.1611000E-02  0.1611000E-02  0.1611000E-02
  0.1611000E-02  0.1611000E-02  0.1611000E-02  0.1611000E-02  0.1611000E-02  0.1611000E-02  0.1611000E-02  0.1611000E-02  0.1611000E-02  0.1611000E-02
  0.1611000E-02  0.1611000E-02  0.1611000E-02  0.1611000E-02  0.1611000E-02  0.1611000E-02  0.1611000E-02  0.1611000E-02  0.1611000E-02  0.1611000E-02
  0.1611000E-02  0.1611000E-02  0.1611000E-02  0.1611000E-02  0.1611000E-02  0.1611000E-02  0.1611000E-02  0.1611000E-02  0.1611000E-02  0.1611000E-02
  0.1611000E-02  0.1611000E-02  0.4306000E-02  0.4306000E-02  0.4306000E-02  0.4306000E-02  0.4306000E-02  0.4306000E-02  0.4306000E-02  0.4306000E-02
  0.4306000E-02  0.4306000E-02  0.4306000E-02  0.4306000E-02  0.1200000E-01  0.1200000E-01  0.1200000E-01  0.1200000E-01  0.1200000E-01  0.1200000E-01
  0.1200000E-01  0.1200000E-01  0.1200000E-01  0.1200000E-01  0.1200000E-01  0.1200000E-01  0.1200000E-01  0.1200000E-01  0.1200000E-01  0.1200000E-01
  0.1200000E-01  0.1200000E-01  0.1200000E-01  0.1200000E-01  0.1200000E-01  0.1200000E-01  0.1200000E-01  0.1200000E-01  0.1200000E-01  0.1200000E-01
  0.1200000E-01  0.1200000E-01  0.1200000E-01  0.1200000E-01  0.4306000E-02  0.4306000E-02  0.4306000E-02  0.4306000E-02  0.4306000E-02  0.4306000E-02
  0.4306000E-02  0.4306000E-02  0.4306000E-02  0.4306000E-02  0.4306000E-02  0.4306000E-02  0.1611000E-02  0.1611000E-02  0.1611000E-02  0.1611000E-02
  0.1611000E-02  0.1611000E-02  0.1611000E-02  0.1611000E-02  0.1611000E-02  0.1611000E-02  0.1611000E-02  0.1611000E-02
  0.1611000E-02  0.1611000E-02  0.1611000E-02  0.1611000E-02  0.1611000E-02  0.1611000E-02  0.1611000E-02  0.1611000E-02  0.1611000E-02  0.1611000E-02
  0.1611000E-02  0.1611000E-02  0.1611000E-02  0.1611000E-02  0.1611000E-02  0.1611000E-02  0.1611000E-02  0.1611000E-02  0.1611000E-02  0.1611000E-02
  0.1611000E-02  0.1611000E-02  0.1611000E-02  0.1611000E-02  0.1611000E-02  0.1611000E-02  0.1611000E-02  0.1611000E-02  0.1611000E-02  0.1611000E-02
  0.1611000E-02  0.1611000E-02  0.1611000E-02  0.1611000E-02  0.1611000E-02  0.1611000E-02  0.1611000E-02  0.1611000E-02  0.1611000E-02  0.1611000E-02
  0.1611000E-02  0.1611000E-02  0.4306000E-02  0.4306000E-02  0.4306000E-02  0.4306000E-02  0.4306000E-02  0.4306000E-02  0.4306000E-02  0.4306000E-02
  0.4306000E-02  0.4306000E-02  0.4306000E-02  0.4306000E-02  0.1200000E-01  0.1200000E-01  0.1200000E-01  0.1200000E-01  0.1200000E-01  0.1200000E-01
  0.1200000E-01  0.1200000E-01  0.1200000E-01  0.1200000E-01  0.1200000E-01  0.1200000E-01  0.1200000E-01  0.1200000E-01  0.1200000E-01  0.1200000E-01
  0.1200000E-01  0.1200000E-01  0.1200000E-01  0.1200000E-01  0.1200000E-01  0.1200000E-01  0.1200000E-01  0.1200000E-01  0.1200000E-01  0.1200000E-01
  0.1200000E-01  0.1200000E-01  0.1200000E-01  0.1200000E-01  0.4306000E-02  0.4306000E-02  0.4306000E-02  0.4306000E-02  0.4306000E-02  0.4306000E-02
  0.4306000E-02  0.4306000E-02  0.4306000E-02  0.4306000E-02  0.4306000E-02  0.4306000E-02  0.1611000E-02  0.1611000E-02  0.1611000E-02  0.1611000E-02
  0.1611000E-02  0.1611000E-02  0.1611000E-02  0.1611000E-02  0.1611000E-02  0.1611000E-02  0.1611000E-02  0.1611000E-02
  0.1611000E-02  0.1611000E-02  0.1611000E-02  0.1611000E-02  0.1611000E-02  0.1611000E-02  0.1611000E-02  0.1611000E-02  0.1611000E-02  0.1611000E-02
  0.1611000E-02  0.1611000E-02  0.1611000E-02  0.1611000E-02  0.1611000E-02  0.1611000E-02  0.1611000E-02  0.1611000E-02  0.1611000E-02  0.1611000E-02
  0.1611000E-02  0.1611000E-02  0.1611000E-02  0.1611000E-02  0.1611000E-02  0.1611000E-02  0.1611000E-02  0.1611000E-02  0.1611000E-02  0.1611000E-02
  0.1611000E-02  0.1611000E-02  0.1611000E-02  0.1611000E-02  0.1611000E-02  0.1611000E-02  0.1611000E-02  0.1611000E-02  0.1611000E-02  0.1611000E-02
  0.1611000E-02  0.1611000E-02  0.4306000E-02  0.4306000E-02  0.4306000E-02  0.4306000E-02  0.4306000E-02  0.4306000E-02  0.4306000E-02  0.4306000E-02
  0.4306000E-02  0.4306000E-02  0.4306000E-02  0.4306000E-02  0.1200000E-01  0.1200000E-01  0.1200000E-01  0.1200000E-01  0.1200000E-01  0.1200000E-01
  0.1200000E-01  0.1200000E-01  0.1200000E-01  0.1200000E-01  0.1200000E-01  0.1200000E-01  0.1200000E-01  0.1200000E-01  0.1200000E-01  0.1200000E-01
  0.1200000E-01  0.1200000E-01  0.1200000E-01  0.1200000E-01  0.1200000E-01  0.1200000E-01  0.1200000E-01  0.1200000E-01  0.1200000E-01  0.1200000E-01
  0.1200000E-01  0.1200000E-01  0.1200000E-01  0.1200000E-01  0.4306000E-02  0.4306000E-02  0.4306000E-02  0.4306000E-02  0.4306000E-02  0.4306000E-02
  0.4306000E-02  0.4306000E-02  0.4306000E-02  0.4306000E-02  0.4306000E-02  0.4306000E-02  0.1611000E-02  0.1611000E-02  0.1611000E-02  0.1611000E-02
  0.1611000E-02  0.1611000E-02  0.1611000E-02  0.1611000E-02  0.1611000E-02  0.1611000E-02  0.1611000E-02  0.1611000E-02
  0.1611000E-02  0.1611000E-02  0.1611000E-02  0.1611000E-02  0.1611000E-02  0.1611000E-02  0.1611000E-02  0.1611000E-02  0.1611000E-02  0.1611000E-02
  0.1611000E-02  0.1611000E-02  0.1611000E-02  0.1611000E-02  0.1611000E-02  0.1611000E-02  0.1611000E-02  0.1611000E-02  0.1611000E-02  0.1611000E-02