BEGIN Options
  NEWTON
END Options

BEGIN PACKAGES
  DIS6          model1.dis
  IC6           model1.ic
  NPF6          model1.npf
  CHD6          model1.chd
  OC6           model1.oc
END PACKAGES

