BEGIN options
END options

BEGIN sources
  GHB-1  AUX  CONCENTRATION
  WEL-1  AUX  CONCENTRATION
END sources

