# RIV for MODFLOW, generated by Flopy.
         1         0
         1         0 # stress period 0
         1        20        25   9.8000000E+01   1.0000000E+03   9.7000000E+01
