# PCG for MODFLOW, generated by Flopy.
20 30 1 0
0.001 1000.0 1.0 2 0 3 1.0 
