# Basic package file for MODFLOW, generated by Flopy.
 FREE
CONSTANT          1                                #ibound Layer 1                
CONSTANT          1                                #ibound Layer 2                
CONSTANT          1                                #ibound Layer 3                
CONSTANT          1                                #ibound Layer 4                
          1.e30
CONSTANT   -1.000100E+00                           #strt Layer 1                  
CONSTANT   -1.000100E+00                           #strt Layer 2                  
CONSTANT   -1.000100E+00                           #strt Layer 3                  
CONSTANT   -1.000100E+00                           #strt Layer 4                  
