# WEL8 input file, prepared by MF5to6 on 3/8/2017 at 13:18:14.

BEGIN Options
  PRINT_INPUT
  PRINT_FLOWS
  SAVE_FLOWS
END Options

BEGIN Dimensions
  MAXBOUND  1
END Dimensions

BEGIN PERIOD 1
  1  38  38    0.0000000
END PERIOD

BEGIN PERIOD 2
  1  38  38   -1000.0000
END PERIOD
