# OC8 input file, prepared by MF5to6 on 3/8/2017 at 13:18:14.

BEGIN Options
  BUDGET FILEOUT  mf6.cbc
  HEAD FILEOUT  mf6.hds
  HEAD PRINT_FORMAT  COLUMNS 10  WIDTH 11  DIGITS 4  GENERAL             
END Options

BEGIN PERIOD 1
  PRINT BUDGET ALL
  SAVE HEAD ALL
END PERIOD

BEGIN PERIOD 2
  PRINT BUDGET LAST
  SAVE HEAD ALL
END PERIOD

BEGIN PERIOD 3
  PRINT BUDGET ALL
  SAVE HEAD ALL
END PERIOD
