BEGIN OPTIONS
  HEAD FILEOUT keating.hds
  BUDGET FILEOUT keating.cbb
END OPTIONS

BEGIN PERIOD 1
  PRINT BUDGET ALL
  SAVE BUDGET ALL
  PRINT HEAD ALL
  SAVE HEAD ALL
END PERIOD
