begin options
  SAVE_FLOWS
end options
#
BEGIN GRIDDATA
  icelltype LAYERED
    constant 1
    constant 1
    constant 1
    constant 1
    constant 1
    constant 1
    constant 1
    constant 1
    constant 1
    constant 1
    constant 1
    constant 1
    constant 1
    constant 1
    constant 1
    constant 1
    constant 1
    constant 1
    constant 1
    constant 1
    constant 1
    constant 1
    constant 1
    constant 1
    constant 1
    constant 1
    constant 1
    constant 1
    constant 1
    constant 1
    constant 1
    constant 1
    constant 1
    constant 1
    constant 1
    constant 1
    constant 1
    constant 1
    constant 1
    constant 1
    constant 1
    constant 1
    constant 1
    constant 1
    constant 1
    constant 1
    constant 1
    constant 1
    constant 1
    constant 1
    constant 1
    constant 1
    constant 1
    constant 1
    constant 1
    constant 1
    constant 1
    constant 1
    constant 1
    constant 1
    constant 1
    constant 1
    constant 1
    constant 1
    constant 1
    constant 1
    constant 1
    constant 1
    constant 1
    constant 1
    constant 1
    constant 1
    constant 1
    constant 1
    constant 1
    constant 1
    constant 1
    constant 1
    constant 1
    constant 1

  k LAYERED
INTERNAL  FACTOR               1 IPRN  -1 #k Layer 1
   8.475839E-01   8.475839E-01   8.475839E-01   8.475839E-01   8.475839E-01   8.475839E-01   8.475839E-01   8.475839E-01   8.475839E-01   8.475839E-01   8.475839E-01   8.475839E-01   8.475839E-01   8.475839E-01   8.475839E-01   8.475839E-01   8.475839E-01   8.475839E-01   8.475839E-01   8.475839E-01   8.475839E-01   8.475839E-01   8.475839E-01   8.475839E-01   8.475839E-01   8.475839E-01   8.475839E-01   8.475839E-01   8.475839E-01   8.475839E-01   8.475839E-01   8.475839E-01   8.475839E-01   8.475839E-01   8.475839E-01   8.475839E-01   8.475839E-01   8.475839E-01   8.475839E-01   8.475839E-01   8.475839E-01   8.475839E-01   8.475839E-01   8.475839E-01   8.475839E-01   8.475839E-01   8.475839E-01   8.475839E-01   8.475839E-01   8.475839E-01   8.475839E-01   8.475839E-01   8.475839E-01   8.475839E-01   8.475839E-01   8.475839E-01   8.475839E-01   8.475839E-01   8.475839E-01   8.475839E-01   8.475839E-01   8.475839E-01   8.475839E-01   8.475839E-01   8.475839E-01   8.475839E-01   8.475839E-01   8.475839E-01   8.475839E-01   8.475839E-01   8.475839E-01   8.475839E-01   8.475839E-01   8.475839E-01   8.475839E-01   8.475839E-01   8.475839E-01   8.475839E-01   8.475839E-01   8.475839E-01   8.475839E-01   8.475839E-01   8.475839E-01   8.475839E-01   8.475839E-01   8.475839E-01   8.475839E-01   8.475839E-01   8.475839E-01   8.475839E-01   8.475839E-01   8.475839E-01   8.475839E-01   8.475839E-01   8.475839E-01   8.475839E-01   8.475839E-01   8.475839E-01   8.475839E-01   8.475839E-01   8.475839E-01   8.475839E-01   8.475839E-01   8.475839E-01   8.475839E-01   8.475839E-01   8.475839E-01   8.475839E-01   8.475839E-01   8.475839E-01   8.475839E-01   8.475839E-01   8.475839E-01   8.475839E-01   8.475839E-01   8.475839E-01   8.475839E-01   8.475839E-01   8.475839E-01   8.475839E-01   8.475839E-01   8.475839E-01   8.475839E-01   8.475839E-01   8.475839E-01   8.475839E-01   8.475839E-01   8.475839E-01   8.475839E-01   8.475839E-01   8.475839E-01   8.475839E-01   8.475839E-01   8.475839E-01   8.475839E-01   8.475839E-01   8.475839E-01   8.475839E-01   8.475839E-01   8.475839E-01   8.475839E-01   8.475839E-01   8.475839E-01   8.475839E-01   8.475839E-01   8.475839E-01   8.475839E-01   8.475839E-01   8.475839E-01   8.475839E-01   8.475839E-01   8.475839E-01   8.475839E-01   8.475839E-01   8.475839E-01   8.475839E-01   8.475839E-01   8.475839E-01   8.475839E-01   8.475839E-01   8.475839E-01   8.475839E-01   8.475839E-01   8.475839E-01   8.475839E-01   8.475839E-01   8.475839E-01   8.475839E-01   8.475839E-01   8.475839E-01   8.475839E-01   8.475839E-01   8.475839E-01   8.475839E-01   8.475839E-01   8.475839E-01   8.475839E-01   8.475839E-01   8.475839E-01   8.475839E-01   8.475839E-01   8.475839E-01   8.475839E-01   8.475839E-01   8.475839E-01   8.475839E-01   8.475839E-01   8.475839E-01   8.475839E-01   8.475839E-01   8.475839E-01   8.475839E-01   8.475839E-01   8.475839E-01   8.475839E-01   8.475839E-01   8.475839E-01   8.475839E-01   8.475839E-01   8.475839E-01   8.475839E-01   8.475839E-01   8.475839E-01   8.475839E-01   8.475839E-01   8.475839E-01   8.475839E-01   8.475839E-01   8.475839E-01   8.475839E-01   8.475839E-01   8.475839E-01   8.475839E-01   8.475839E-01   8.475839E-01   8.475839E-01   8.475839E-01   8.475839E-01   8.475839E-01   8.475839E-01   8.475839E-01   8.475839E-01   8.475839E-01   8.475839E-01   8.475839E-01   8.475839E-01   8.475839E-01   8.475839E-01   8.475839E-01   8.475839E-01   8.475839E-01   8.475839E-01   8.475839E-01   8.475839E-01   8.475839E-01   8.475839E-01   8.475839E-01   8.475839E-01   8.475839E-01   8.475839E-01   8.475839E-01   8.475839E-01   8.475839E-01   8.475839E-01   8.475839E-01   8.475839E-01   8.475839E-01   8.475839E-01   8.475839E-01   8.475839E-01   8.475839E-01   8.475839E-01   8.475839E-01   8.475839E-01   8.475839E-01   8.475839E-01   8.475839E-01   8.475839E-01   8.475839E-01   8.475839E-01   8.475839E-01   8.475839E-01   8.475839E-01   8.475839E-01   8.475839E-01   8.475839E-01   8.475839E-01   8.475839E-01   8.475839E-01   8.475839E-01   8.475839E-01   8.475839E-01   8.475839E-01   8.475839E-01   8.475839E-01   8.475839E-01   8.475839E-01   8.475839E-01   8.475839E-01   8.475839E-01   8.475839E-01   8.475839E-01   8.475839E-01   8.475839E-01   8.475839E-01   8.475839E-01   8.475839E-01   8.475839E-01   8.475839E-01   8.475839E-01   8.475839E-01   8.475839E-01   8.475839E-01   8.475839E-01   8.475839E-01   8.475839E-01   8.475839E-01   8.475839E-01   8.475839E-01   8.475839E-01   8.475839E-01   8.475839E-01   8.475839E-01   8.475839E-01   8.475839E-01   8.475839E-01   8.475839E-01   8.475839E-01   8.475839E-01   8.475839E-01   8.475839E-01   8.475839E-01   8.475839E-01   8.475839E-01   8.475839E-01   8.475839E-01   8.475839E-01   8.475839E-01   8.475839E-01   8.475839E-01   8.475839E-01   8.475839E-01   8.475839E-01   8.475839E-01   8.475839E-01   8.475839E-01   8.475839E-01   8.475839E-01   8.475839E-01   8.475839E-01   8.475839E-01   8.475839E-01   8.475839E-01   8.475839E-01   8.475839E-01   8.475839E-01   8.475839E-01   8.475839E-01   8.475839E-01   8.475839E-01   8.475839E-01   8.475839E-01   8.475839E-01   8.475839E-01   8.475839E-01   8.475839E-01   8.475839E-01   8.475839E-01   8.475839E-01   8.475839E-01   8.475839E-01   8.475839E-01   8.475839E-01   8.475839E-01   8.475839E-01   8.475839E-01   8.475839E-01   8.475839E-01   8.475839E-01   8.475839E-01   8.475839E-01   8.475839E-01   8.475839E-01   8.475839E-01   8.475839E-01   8.475839E-01   8.475839E-01   8.475839E-01   8.475839E-01   8.475839E-01   8.475839E-01   8.475839E-01   8.475839E-01   8.475839E-01   8.475839E-01   8.475839E-01   8.475839E-01   8.475839E-01   8.475839E-01   8.475839E-01   8.475839E-01   8.475839E-01   8.475839E-01   8.475839E-01   8.475839E-01   8.475839E-01   8.475839E-01   8.475839E-01   8.475839E-01   8.475839E-01   8.475839E-01   8.475839E-01   8.475839E-01   8.475839E-01   8.475839E-01   8.475839E-01   8.475839E-01   8.475839E-01   8.475839E-01   8.475839E-01
INTERNAL  FACTOR               1 IPRN  -1 #k Layer 2
   8.475839E-01   8.475839E-01   8.475839E-01   8.475839E-01   8.475839E-01   8.475839E-01   8.475839E-01   8.475839E-01   8.475839E-01   8.475839E-01   8.475839E-01   8.475839E-01   8.475839E-01   8.475839E-01   8.475839E-01   8.475839E-01   8.475839E-01   8.475839E-01   8.475839E-01   8.475839E-01   8.475839E-01   8.475839E-01   8.475839E-01   8.475839E-01   8.475839E-01   8.475839E-01   8.475839E-01   8.475839E-01   8.475839E-01   8.475839E-01   8.475839E-01   8.475839E-01   8.475839E-01   8.475839E-01   8.475839E-01   8.475839E-01   8.475839E-01   8.475839E-01   8.475839E-01   8.475839E-01   8.475839E-01   8.475839E-01   8.475839E-01   8.475839E-01   8.475839E-01   8.475839E-01   8.475839E-01   8.475839E-01   8.475839E-01   8.475839E-01   8.475839E-01   8.475839E-01   8.475839E-01   8.475839E-01   8.475839E-01   8.475839E-01   8.475839E-01   8.475839E-01   8.475839E-01   8.475839E-01   8.475839E-01   8.475839E-01   8.475839E-01   8.475839E-01   8.475839E-01   8.475839E-01   8.475839E-01   8.475839E-01   8.475839E-01   8.475839E-01   8.475839E-01   8.475839E-01   8.475839E-01   8.475839E-01   8.475839E-01   8.475839E-01   8.475839E-01   8.475839E-01   8.475839E-01   8.475839E-01   8.475839E-01   8.475839E-01   8.475839E-01   8.475839E-01   8.475839E-01   8.475839E-01   8.475839E-01   8.475839E-01   8.475839E-01   8.475839E-01   8.475839E-01   8.475839E-01   8.475839E-01   8.475839E-01   8.475839E-01   8.475839E-01   8.475839E-01   8.475839E-01   8.475839E-01   8.475839E-01   8.475839E-01   8.475839E-01   8.475839E-01   8.475839E-01   8.475839E-01   8.475839E-01   8.475839E-01   8.475839E-01   8.475839E-01   8.475839E-01   8.475839E-01   8.475839E-01   8.475839E-01   8.475839E-01   8.475839E-01   8.475839E-01   8.475839E-01   8.475839E-01   8.475839E-01   8.475839E-01   8.475839E-01   8.475839E-01   8.475839E-01   8.475839E-01   8.475839E-01   8.475839E-01   8.475839E-01   8.475839E-01   8.475839E-01   8.475839E-01   8.475839E-01   8.475839E-01   8.475839E-01   8.475839E-01   8.475839E-01   8.475839E-01   8.475839E-01   8.475839E-01   8.475839E-01   8.475839E-01   8.475839E-01   8.475839E-01   8.475839E-01   8.475839E-01   8.475839E-01   8.475839E-01   8.475839E-01   8.475839E-01   8.475839E-01   8.475839E-01   8.475839E-01   8.475839E-01   8.475839E-01   8.475839E-01   8.475839E-01   8.475839E-01   8.475839E-01   8.475839E-01   8.475839E-01   8.475839E-01   8.475839E-01   8.475839E-01   8.475839E-01   8.475839E-01   8.475839E-01   8.475839E-01   8.475839E-01   8.475839E-01   8.475839E-01   8.475839E-01   8.475839E-01   8.475839E-01   8.475839E-01   8.475839E-01   8.475839E-01   8.475839E-01   8.475839E-01   8.475839E-01   8.475839E-01   8.475839E-01   8.475839E-01   8.475839E-01   8.475839E-01   8.475839E-01   8.475839E-01   8.475839E-01   8.475839E-01   8.475839E-01   8.475839E-01   8.475839E-01   8.475839E-01   8.475839E-01   8.475839E-01   8.475839E-01   8.475839E-01   8.475839E-01   8.475839E-01   8.475839E-01   8.475839E-01   8.475839E-01   8.475839E-01   8.475839E-01   8.475839E-01   8.475839E-01   8.475839E-01   8.475839E-01   8.475839E-01   8.475839E-01   8.475839E-01   8.475839E-01   8.475839E-01   8.475839E-01   8.475839E-01   8.475839E-01   8.475839E-01   8.475839E-01   8.475839E-01   8.475839E-01   8.475839E-01   8.475839E-01   8.475839E-01   8.475839E-01   8.475839E-01   8.475839E-01   8.475839E-01   8.475839E-01   8.475839E-01   8.475839E-01   8.475839E-01   8.475839E-01   8.475839E-01   8.475839E-01   8.475839E-01   8.475839E-01   8.475839E-01   8.475839E-01   8.475839E-01   8.475839E-01   8.475839E-01   8.475839E-01   8.475839E-01   8.475839E-01   8.475839E-01   8.475839E-01   8.475839E-01   8.475839E-01   8.475839E-01   8.475839E-01   8.475839E-01   8.475839E-01   8.475839E-01   8.475839E-01   8.475839E-01   8.475839E-01   8.475839E-01   8.475839E-01   8.475839E-01   8.475839E-01   8.475839E-01   8.475839E-01   8.475839E-01   8.475839E-01   8.475839E-01   8.475839E-01   8.475839E-01   8.475839E-01   8.475839E-01   8.475839E-01   8.475839E-01   8.475839E-01   8.475839E-01   8.475839E-01   8.475839E-01   8.475839E-01   8.475839E-01   8.475839E-01   8.475839E-01   8.475839E-01   8.475839E-01   8.475839E-01   8.475839E-01   8.475839E-01   8.475839E-01   8.475839E-01   8.475839E-01   8.475839E-01   8.475839E-01   8.475839E-01   8.475839E-01   8.475839E-01   8.475839E-01   8.475839E-01   8.475839E-01   8.475839E-01   8.475839E-01   8.475839E-01   8.475839E-01   8.475839E-01   8.475839E-01   8.475839E-01   8.475839E-01   8.475839E-01   8.475839E-01   8.475839E-01   8.475839E-01   8.475839E-01   8.475839E-01   8.475839E-01   8.475839E-01   8.475839E-01   8.475839E-01   8.475839E-01   8.475839E-01   8.475839E-01   8.475839E-01   8.475839E-01   8.475839E-01   8.475839E-01   8.475839E-01   8.475839E-01   8.475839E-01   8.475839E-01   8.475839E-01   8.475839E-01   8.475839E-01   8.475839E-01   8.475839E-01   8.475839E-01   8.475839E-01   8.475839E-01   8.475839E-01   8.475839E-01   8.475839E-01   8.475839E-01   8.475839E-01   8.475839E-01   8.475839E-01   8.475839E-01   8.475839E-01   8.475839E-01   8.475839E-01   8.475839E-01   8.475839E-01   8.475839E-01   8.475839E-01   8.475839E-01   8.475839E-01   8.475839E-01   8.475839E-01   8.475839E-01   8.475839E-01   8.475839E-01   8.475839E-01   8.475839E-01   8.475839E-01   8.475839E-01   8.475839E-01   8.475839E-01   8.475839E-01   8.475839E-01   8.475839E-01   8.475839E-01   8.475839E-01   8.475839E-01   8.475839E-01   8.475839E-01   8.475839E-01   8.475839E-01   8.475839E-01   8.475839E-01   8.475839E-01   8.475839E-01   8.475839E-01   8.475839E-01   8.475839E-01   8.475839E-01   8.475839E-01   8.475839E-01   8.475839E-01   8.475839E-01   8.475839E-01   8.475839E-01   8.475839E-01   8.475839E-01   8.475839E-01   8.475839E-01   8.475839E-01   8.475839E-01   8.475839E-01   8.475839E-01   8.475839E-01   8.475839E-01   8.475839E-01   8.475839E-01   8.475839E-01   8.475839E-01   8.475839E-01   8.475839E-01   8.475839E-01   8.475839E-01
INTERNAL  FACTOR               1 IPRN  -1 #k Layer 3
   8.475839E-01   8.475839E-01   8.475839E-01   8.475839E-01   8.475839E-01   8.475839E-01   8.475839E-01   8.475839E-01   8.475839E-01   8.475839E-01   8.475839E-01   8.475839E-01   8.475839E-01   8.475839E-01   8.475839E-01   8.475839E-01   8.475839E-01   8.475839E-01   8.475839E-01   8.475839E-01   8.475839E-01   8.475839E-01   8.475839E-01   8.475839E-01   8.475839E-01   8.475839E-01   8.475839E-01   8.475839E-01   8.475839E-01   8.475839E-01   8.475839E-01   8.475839E-01   8.475839E-01   8.475839E-01   8.475839E-01   8.475839E-01   8.475839E-01   8.475839E-01   8.475839E-01   8.475839E-01   8.475839E-01   8.475839E-01   8.475839E-01   8.475839E-01   8.475839E-01   8.475839E-01   8.475839E-01   8.475839E-01   8.475839E-01   8.475839E-01   8.475839E-01   8.475839E-01   8.475839E-01   8.475839E-01   8.475839E-01   8.475839E-01   8.475839E-01   8.475839E-01   8.475839E-01   8.475839E-01   8.475839E-01   8.475839E-01   8.475839E-01   8.475839E-01   8.475839E-01   8.475839E-01   8.475839E-01   8.475839E-01   8.475839E-01   8.475839E-01   8.475839E-01   8.475839E-01   8.475839E-01   8.475839E-01   8.475839E-01   8.475839E-01   8.475839E-01   8.475839E-01   8.475839E-01   8.475839E-01   8.475839E-01   8.475839E-01   8.475839E-01   8.475839E-01   8.475839E-01   8.475839E-01   8.475839E-01   8.475839E-01   8.475839E-01   8.475839E-01   8.475839E-01   8.475839E-01   8.475839E-01   8.475839E-01   8.475839E-01   8.475839E-01   8.475839E-01   8.475839E-01   8.475839E-01   8.475839E-01   8.475839E-01   8.475839E-01   8.475839E-01   8.475839E-01   8.475839E-01   8.475839E-01   8.475839E-01   8.475839E-01   8.475839E-01   8.475839E-01   8.475839E-01   8.475839E-01   8.475839E-01   8.475839E-01   8.475839E-01   8.475839E-01   8.475839E-01   8.475839E-01   8.475839E-01   8.475839E-01   8.475839E-01   8.475839E-01   8.475839E-01   8.475839E-01   8.475839E-01   8.475839E-01   8.475839E-01   8.475839E-01   8.475839E-01   8.475839E-01   8.475839E-01   8.475839E-01   8.475839E-01   8.475839E-01   8.475839E-01   8.475839E-01   8.475839E-01   8.475839E-01   8.475839E-01   8.475839E-01   8.475839E-01   8.475839E-01   8.475839E-01   8.475839E-01   8.475839E-01   8.475839E-01   8.475839E-01   8.475839E-01   8.475839E-01   8.475839E-01   8.475839E-01   8.475839E-01   8.475839E-01   8.475839E-01   8.475839E-01   8.475839E-01   8.475839E-01   8.475839E-01   8.475839E-01   8.475839E-01   8.475839E-01   8.475839E-01   8.475839E-01   8.475839E-01   8.475839E-01   8.475839E-01   8.475839E-01   8.475839E-01   8.475839E-01   8.475839E-01   8.475839E-01   8.475839E-01   8.475839E-01   8.475839E-01   8.475839E-01   8.475839E-01   8.475839E-01   8.475839E-01   8.475839E-01   8.475839E-01   8.475839E-01   8.475839E-01   8.475839E-01   8.475839E-01   8.475839E-01   8.475839E-01   8.475839E-01   8.475839E-01   8.475839E-01   8.475839E-01   8.475839E-01   8.475839E-01   8.475839E-01   8.475839E-01   8.475839E-01   8.475839E-01   8.475839E-01   8.475839E-01   8.475839E-01   8.475839E-01   8.475839E-01   8.475839E-01   8.475839E-01   8.475839E-01   8.475839E-01   8.475839E-01   8.475839E-01   8.475839E-01   8.475839E-01   8.475839E-01   8.475839E-01   8.475839E-01   8.475839E-01   8.475839E-01   8.475839E-01   8.475839E-01   8.475839E-01   8.475839E-01   8.475839E-01   8.475839E-01   8.475839E-01   8.475839E-01   8.475839E-01   8.475839E-01   8.475839E-01   8.475839E-01   8.475839E-01   8.475839E-01   8.475839E-01   8.475839E-01   8.475839E-01   8.475839E-01   8.475839E-01   8.475839E-01   8.475839E-01   8.475839E-01   8.475839E-01   8.475839E-01   8.475839E-01   8.475839E-01   8.475839E-01   8.475839E-01   8.475839E-01   8.475839E-01   8.475839E-01   8.475839E-01   8.475839E-01   8.475839E-01   8.475839E-01   8.475839E-01   8.475839E-01   8.475839E-01   8.475839E-01   8.475839E-01   8.475839E-01   8.475839E-01   8.475839E-01   8.475839E-01   8.475839E-01   8.475839E-01   8.475839E-01   8.475839E-01   8.475839E-01   8.475839E-01   8.475839E-01   8.475839E-01   8.475839E-01   8.475839E-01   8.475839E-01   8.475839E-01   8.475839E-01   8.475839E-01   8.475839E-01   8.475839E-01   8.475839E-01   8.475839E-01   8.475839E-01   8.475839E-01   8.475839E-01   8.475839E-01   8.475839E-01   8.475839E-01   8.475839E-01   8.475839E-01   8.475839E-01   8.475839E-01   8.475839E-01   8.475839E-01   8.475839E-01   8.475839E-01   8.475839E-01   8.475839E-01   8.475839E-01   8.475839E-01   8.475839E-01   8.475839E-01   8.475839E-01   8.475839E-01   8.475839E-01   8.475839E-01   8.475839E-01   8.475839E-01   8.475839E-01   8.475839E-01   8.475839E-01   8.475839E-01   8.475839E-01   8.475839E-01   8.475839E-01   8.475839E-01   8.475839E-01   8.475839E-01   8.475839E-01   8.475839E-01   8.475839E-01   8.475839E-01   8.475839E-01   8.475839E-01   8.475839E-01   8.475839E-01   8.475839E-01   8.475839E-01   8.475839E-01   8.475839E-01   8.475839E-01   8.475839E-01   8.475839E-01   8.475839E-01   8.475839E-01   8.475839E-01   8.475839E-01   8.475839E-01   8.475839E-01   8.475839E-01   8.475839E-01   8.475839E-01   8.475839E-01   8.475839E-01   8.475839E-01   8.475839E-01   8.475839E-01   8.475839E-01   8.475839E-01   8.475839E-01   8.475839E-01   8.475839E-01   8.475839E-01   8.475839E-01   8.475839E-01   8.475839E-01   8.475839E-01   8.475839E-01   8.475839E-01   8.475839E-01   8.475839E-01   8.475839E-01   8.475839E-01   8.475839E-01   8.475839E-01   8.475839E-01   8.475839E-01   8.475839E-01   8.475839E-01   8.475839E-01   8.475839E-01   8.475839E-01   8.475839E-01   8.475839E-01   8.475839E-01   8.475839E-01   8.475839E-01   8.475839E-01   8.475839E-01   8.475839E-01   8.475839E-01   8.475839E-01   8.475839E-01   8.475839E-01   8.475839E-01   8.475839E-01   8.475839E-01   8.475839E-01   8.475839E-01   8.475839E-01   8.475839E-01   8.475839E-01   8.475839E-01   8.475839E-01   8.475839E-01   8.475839E-01   8.475839E-01   8.475839E-01   8.475839E-01   8.475839E-01   8.475839E-01   8.475839E-01   8.475839E-01   8.475839E-01   8.475839E-01   8.475839E-01
INTERNAL  FACTOR               1 IPRN  -1 #k Layer 4
   8.475839E-01   8.475839E-01   8.475839E-01   8.475839E-01   8.475839E-01   8.475839E-01   8.475839E-01   8.475839E-01   8.475839E-01   8.475839E-01   8.475839E-01   8.475839E-01   8.475839E-01   8.475839E-01   8.475839E-01   8.475839E-01   8.475839E-01   8.475839E-01   8.475839E-01   8.475839E-01   8.475839E-01   8.475839E-01   8.475839E-01   8.475839E-01   8.475839E-01   8.475839E-01   8.475839E-01   8.475839E-01   8.475839E-01   8.475839E-01   8.475839E-01   8.475839E-01   8.475839E-01   8.475839E-01   8.475839E-01   8.475839E-01   8.475839E-01   8.475839E-01   8.475839E-01   8.475839E-01   8.475839E-01   8.475839E-01   8.475839E-01   8.475839E-01   8.475839E-01   8.475839E-01   8.475839E-01   8.475839E-01   8.475839E-01   8.475839E-01   8.475839E-01   8.475839E-01   8.475839E-01   8.475839E-01   8.475839E-01   8.475839E-01   8.475839E-01   8.475839E-01   8.475839E-01   8.475839E-01   8.475839E-01   8.475839E-01   8.475839E-01   8.475839E-01   8.475839E-01   8.475839E-01   8.475839E-01   8.475839E-01   8.475839E-01   8.475839E-01   8.475839E-01   8.475839E-01   8.475839E-01   8.475839E-01   8.475839E-01   8.475839E-01   8.475839E-01   8.475839E-01   8.475839E-01   8.475839E-01   8.475839E-01   8.475839E-01   8.475839E-01   8.475839E-01   8.475839E-01   8.475839E-01   8.475839E-01   8.475839E-01   8.475839E-01   8.475839E-01   8.475839E-01   8.475839E-01   8.475839E-01   8.475839E-01   8.475839E-01   8.475839E-01   8.475839E-01   8.475839E-01   8.475839E-01   8.475839E-01   8.475839E-01   8.475839E-01   8.475839E-01   8.475839E-01   8.475839E-01   8.475839E-01   8.475839E-01   8.475839E-01   8.475839E-01   8.475839E-01   8.475839E-01   8.475839E-01   8.475839E-01   8.475839E-01   8.475839E-01   8.475839E-01   8.475839E-01   8.475839E-01   8.475839E-01   8.475839E-01   8.475839E-01   8.475839E-01   8.475839E-01   8.475839E-01   8.475839E-01   8.475839E-01   8.475839E-01   8.475839E-01   8.475839E-01   8.475839E-01   8.475839E-01   8.475839E-01   8.475839E-01   8.475839E-01   8.475839E-01   8.475839E-01   8.475839E-01   8.475839E-01   8.475839E-01   8.475839E-01   8.475839E-01   8.475839E-01   8.475839E-01   8.475839E-01   8.475839E-01   8.475839E-01   8.475839E-01   8.475839E-01   8.475839E-01   8.475839E-01   8.475839E-01   8.475839E-01   8.475839E-01   8.475839E-01   8.475839E-01   8.475839E-01   8.475839E-01   8.475839E-01   8.475839E-01   8.475839E-01   8.475839E-01   8.475839E-01   8.475839E-01   8.475839E-01   8.475839E-01   8.475839E-01   8.475839E-01   8.475839E-01   8.475839E-01   8.475839E-01   8.475839E-01   8.475839E-01   8.475839E-01   8.475839E-01   8.475839E-01   8.475839E-01   8.475839E-01   8.475839E-01   8.475839E-01   8.475839E-01   8.475839E-01   8.475839E-01   8.475839E-01   8.475839E-01   8.475839E-01   8.475839E-01   8.475839E-01   8.475839E-01   8.475839E-01   8.475839E-01   8.475839E-01   8.475839E-01   8.475839E-01   8.475839E-01   8.475839E-01   8.475839E-01   8.475839E-01   8.475839E-01   8.475839E-01   8.475839E-01   8.475839E-01   8.475839E-01   8.475839E-01   8.475839E-01   8.475839E-01   8.475839E-01   8.475839E-01   8.475839E-01   8.475839E-01   8.475839E-01   8.475839E-01   8.475839E-01   8.475839E-01   8.475839E-01   8.475839E-01   8.475839E-01   8.475839E-01   8.475839E-01   8.475839E-01   8.475839E-01   8.475839E-01   8.475839E-01   8.475839E-01   8.475839E-01   8.475839E-01   8.475839E-01   8.475839E-01   8.475839E-01   8.475839E-01   8.475839E-01   8.475839E-01   8.475839E-01   8.475839E-01   8.475839E-01   8.475839E-01   8.475839E-01   8.475839E-01   8.475839E-01   8.475839E-01   8.475839E-01   8.475839E-01   8.475839E-01   8.475839E-01   8.475839E-01   8.475839E-01   8.475839E-01   8.475839E-01   8.475839E-01   8.475839E-01   8.475839E-01   8.475839E-01   8.475839E-01   8.475839E-01   8.475839E-01   8.475839E-01   8.475839E-01   8.475839E-01   8.475839E-01   8.475839E-01   8.475839E-01   8.475839E-01   8.475839E-01   8.475839E-01   8.475839E-01   8.475839E-01   8.475839E-01   8.475839E-01   8.475839E-01   8.475839E-01   8.475839E-01   8.475839E-01   8.475839E-01   8.475839E-01   8.475839E-01   8.475839E-01   8.475839E-01   8.475839E-01   8.475839E-01   8.475839E-01   8.475839E-01   8.475839E-01   8.475839E-01   8.475839E-01   8.475839E-01   8.475839E-01   8.475839E-01   8.475839E-01   8.475839E-01   8.475839E-01   8.475839E-01   8.475839E-01   8.475839E-01   8.475839E-01   8.475839E-01   8.475839E-01   8.475839E-01   8.475839E-01   8.475839E-01   8.475839E-01   8.475839E-01   8.475839E-01   8.475839E-01   8.475839E-01   8.475839E-01   8.475839E-01   8.475839E-01   8.475839E-01   8.475839E-01   8.475839E-01   8.475839E-01   8.475839E-01   8.475839E-01   8.475839E-01   8.475839E-01   8.475839E-01   8.475839E-01   8.475839E-01   8.475839E-01   8.475839E-01   8.475839E-01   8.475839E-01   8.475839E-01   8.475839E-01   8.475839E-01   8.475839E-01   8.475839E-01   8.475839E-01   8.475839E-01   8.475839E-01   8.475839E-01   8.475839E-01   8.475839E-01   8.475839E-01   8.475839E-01   8.475839E-01   8.475839E-01   8.475839E-01   8.475839E-01   8.475839E-01   8.475839E-01   8.475839E-01   8.475839E-01   8.475839E-01   8.475839E-01   8.475839E-01   8.475839E-01   8.475839E-01   8.475839E-01   8.475839E-01   8.475839E-01   8.475839E-01   8.475839E-01   8.475839E-01   8.475839E-01   8.475839E-01   8.475839E-01   8.475839E-01   8.475839E-01   8.475839E-01   8.475839E-01   8.475839E-01   8.475839E-01   8.475839E-01   8.475839E-01   8.475839E-01   8.475839E-01   8.475839E-01   8.475839E-01   8.475839E-01   8.475839E-01   8.475839E-01   8.475839E-01   8.475839E-01   8.475839E-01   8.475839E-01   8.475839E-01   8.475839E-01   8.475839E-01   8.475839E-01   8.475839E-01   8.475839E-01   8.475839E-01   8.475839E-01   8.475839E-01   8.475839E-01   8.475839E-01   8.475839E-01   8.475839E-01   8.475839E-01   8.475839E-01   8.475839E-01   8.475839E-01   8.475839E-01   8.475839E-01   8.475839E-01   8.475839E-01   8.475839E-01   8.475839E-01   8.475839E-01   8.475839E-01
INTERNAL  FACTOR               1 IPRN  -1 #k Layer 5