begin options
  print_option summary
end options

begin nonlinear
	outer_dvclose 1.e-6
	outer_maximum 100 
	under_relaxation none
end nonlinear

begin linear
	inner_dvclose 1.0e-6
	inner_rclose 0.01
	inner_maximum 100
	linear_acceleration cg
	scaling_method none
	reordering_method none
	relaxation_factor 1.0
end linear


#note for this 751.751 problem, the solution is very sensitive to relaxpcgu
#if 1.0 is used, then problem converges nicely.  if 0.97 is used, then
#it does not converge.  (cdl 5/19/2014)
