begin options
  SAVE_FLOWS
end options

BEGIN GRIDDATA
  #iconvert(nodes) is 0:confined, 1:convertible
  iconvert
    constant 1
  #ss(nodes) specific storage
  ss
    constant 0.0
  #sy(nodes) specific yield
  sy
    constant 0.1
END GRIDDATA

begin period 1
  steady-state
end period

begin period 2
  transient
end period

begin period 3
  steady-state
end period
