BEGIN OPTIONS
  HEAD FILEOUT mfusg_C.hds
  BUDGET FILEOUT mfusg_C.cbc
END OPTIONS

BEGIN PERIOD 1
  PRINT BUDGET ALL
  SAVE BUDGET LAST
  SAVE HEAD LAST
END PERIOD

BEGIN PERIOD 2
  PRINT BUDGET ALL
  SAVE BUDGET LAST
  SAVE HEAD STEPS 1 10
END PERIOD

BEGIN PERIOD 3
  PRINT BUDGET ALL
  SAVE BUDGET LAST
  SAVE HEAD LAST
END PERIOD
