BEGIN OPTIONS
  READASARRAYS
  FIXED_CELL
  AUXILIARY MYRCHMULT
  AUXMULTNAME MYRCHMULT
  PRINT_FLOWS
  PRINT_INPUT
  TAS6 FILEIN flow15.rch.tas
  TAS6 FILEIN flow15.rch.mult.tas
END OPTIONS

BEGIN PERIOD 1
  RECHARGE TIMEARRAYSERIES recharge
  MYRCHMULT TIMEARRAYSERIES myrchmult
END PERIOD

BEGIN PERIOD 2
END PERIOD

BEGIN PERIOD 3
  RECHARGE TIMEARRAYSERIES recharge
  MYRCHMULT TIMEARRAYSERIES myrchmult
END PERIOD

BEGIN PERIOD 4
  RECHARGE
    CONSTANT 0.02
  MYRCHMULT
    CONSTANT 0.5
END PERIOD
