# TDIS8 input file, prepared by MF5to6 on 7/29/2016 at 10:56:36.

BEGIN Options
  TIME_UNITS SECONDS
END Options

BEGIN Dimensions
  NPER 24
END Dimensions

BEGIN PERIODDATA
    2628000.0               1    1.0000000      Items: PERLEN NSTP TSMULT
    2628000.0              15    1.0000000      Items: PERLEN NSTP TSMULT
    2628000.0              15    1.0000000      Items: PERLEN NSTP TSMULT
    2628000.0              15    1.0000000      Items: PERLEN NSTP TSMULT
    2628000.0              15    1.0000000      Items: PERLEN NSTP TSMULT
    2628000.0              15    1.0000000      Items: PERLEN NSTP TSMULT
    2628000.0              15    1.0000000      Items: PERLEN NSTP TSMULT
    2628000.0              15    1.0000000      Items: PERLEN NSTP TSMULT
    2628000.0              15    1.0000000      Items: PERLEN NSTP TSMULT
    2628000.0              15    1.0000000      Items: PERLEN NSTP TSMULT
    2628000.0              15    1.0000000      Items: PERLEN NSTP TSMULT
    2628000.0              15    1.0000000      Items: PERLEN NSTP TSMULT
    2628000.0              15    1.0000000      Items: PERLEN NSTP TSMULT
    2628000.0              15    1.0000000      Items: PERLEN NSTP TSMULT
    2628000.0              15    1.0000000      Items: PERLEN NSTP TSMULT
    2628000.0              15    1.0000000      Items: PERLEN NSTP TSMULT
    2628000.0              15    1.0000000      Items: PERLEN NSTP TSMULT
    2628000.0              15    1.0000000      Items: PERLEN NSTP TSMULT
    2628000.0              15    1.0000000      Items: PERLEN NSTP TSMULT
    2628000.0              15    1.0000000      Items: PERLEN NSTP TSMULT
    2628000.0              15    1.0000000      Items: PERLEN NSTP TSMULT
    2628000.0              15    1.0000000      Items: PERLEN NSTP TSMULT
    2628000.0              15    1.0000000      Items: PERLEN NSTP TSMULT
    2628000.0              15    1.0000000      Items: PERLEN NSTP TSMULT
END PERIODDATA
