# NPF8 input file, prepared by MF5to6 on 7/29/2016 at 10:56:36.

BEGIN Options
  ALTERNATIVE_CELL_AVERAGING  AMT-HMK
  SAVE_FLOWS
END Options

BEGIN GRIDDATA
  Icelltype LAYERED
    CONSTANT  1
    CONSTANT  1
  k  LAYERED
    INTERNAL  FACTOR  2.5  IPRN  12
  0.2000000E-02  0.2000000E-02   0.000000       0.000000       0.000000       0.000000       0.000000       0.000000       0.000000       0.000000    
  0.4000000E-03  0.2000000E-02  0.2000000E-02   0.000000       0.000000      0.4000000E-03  0.4000000E-03  0.4000000E-03   0.000000       0.000000    
   0.000000      0.4000000E-03  0.2000000E-02  0.2000000E-02  0.4000000E-03  0.4000000E-03  0.4000000E-03  0.4000000E-03   0.000000       0.000000    
  0.4000000E-03  0.4000000E-03  0.4000000E-03  0.2000000E-02  0.2000000E-02  0.2000000E-02  0.4000000E-03  0.4000000E-03  0.4000000E-03   0.000000    
  0.4000000E-03  0.4000000E-03  0.4000000E-03  0.2000000E-02  0.2000000E-02  0.2000000E-02  0.2000000E-02  0.2000000E-02  0.2000000E-02  0.2000000E-02
  0.4000000E-03  0.4000000E-03  0.4000000E-03  0.2000000E-02  0.2000000E-02  0.2000000E-02  0.2000000E-02  0.2000000E-02  0.4000000E-03  0.4000000E-03
  0.4000000E-03  0.4000000E-03  0.4000000E-03  0.2000000E-02  0.2000000E-02  0.2000000E-02  0.2000000E-02  0.2000000E-02  0.4000000E-03   0.000000    
   0.000000      0.4000000E-03  0.4000000E-03  0.2000000E-02  0.2000000E-02  0.2000000E-02  0.2000000E-02  0.4000000E-03  0.4000000E-03   0.000000    
   0.000000      0.4000000E-03  0.4000000E-03  0.2000000E-02  0.2000000E-02  0.2000000E-02  0.2000000E-02  0.4000000E-03  0.4000000E-03   0.000000    
   0.000000      0.4000000E-03  0.4000000E-03  0.2000000E-02  0.2000000E-02  0.2000000E-02  0.2000000E-02  0.4000000E-03  0.4000000E-03  0.4000000E-03
   0.000000      0.4000000E-03  0.4000000E-03  0.2000000E-02  0.2000000E-02  0.2000000E-02  0.2000000E-02  0.4000000E-03  0.4000000E-03   0.000000    
  0.4000000E-03  0.4000000E-03  0.2000000E-02  0.2000000E-02  0.2000000E-02  0.2000000E-02  0.2000000E-02  0.4000000E-03  0.4000000E-03   0.000000    
  0.2000000E-02  0.2000000E-02  0.2000000E-02  0.2000000E-02  0.2000000E-02  0.2000000E-02  0.2000000E-02  0.2000000E-02  0.2000000E-02   0.000000    
   0.000000      0.4000000E-03  0.4000000E-03  0.4000000E-03  0.4000000E-03  0.4000000E-03  0.4000000E-03  0.4000000E-03  0.2000000E-02   0.000000    
   0.000000       0.000000      0.4000000E-03  0.4000000E-03  0.4000000E-03  0.4000000E-03   0.000000       0.000000       0.000000       0.000000    
    CONSTANT   0.350000000E-02
  K33  LAYERED
    CONSTANT   0.500000000E-05
    CONSTANT   0.500000000E-05
END GRIDDATA
