# Basic package file for MODFLOW.
 FREE
CONSTANT          1                                #ibound Layer 1                
CONSTANT          1                                #ibound Layer 2                
        -999.99
CONSTANT    3.05
CONSTANT    9.14
