BEGIN OPTIONS
  PRINT_FLOWS
  XT3D
END OPTIONS

BEGIN GRIDDATA
  ICELLTYPE
    CONSTANT 1

  K
    INTERNAL
     0.84758389999999995  0.84758389999999995  0.84758389999999995  0.84758389999999995  0.84758389999999995  0.84758389999999995  0.84758389999999995  0.84758389999999995  0.84758389999999995  0.84758389999999995
     0.84758389999999995  0.84758389999999995  0.84758389999999995  0.84758389999999995  0.84758389999999995  0.84758389999999995  0.84758389999999995  0.84758389999999995  0.84758389999999995  0.84758389999999995
     0.84758389999999995  0.84758389999999995  0.84758389999999995  0.84758389999999995  0.84758389999999995  0.84758389999999995  0.84758389999999995  0.84758389999999995  0.84758389999999995  0.84758389999999995
     0.84758389999999995  0.84758389999999995  0.84758389999999995  0.84758389999999995  0.84758389999999995  0.84758389999999995  0.84758389999999995  0.84758389999999995  0.84758389999999995  0.84758389999999995
     0.84758389999999995  0.84758389999999995  0.84758389999999995  0.84758389999999995  0.84758389999999995  0.84758389999999995  0.84758389999999995  0.84758389999999995  0.84758389999999995  0.84758389999999995
     0.84758389999999995  0.84758389999999995  0.84758389999999995  0.84758389999999995  0.84758389999999995  0.84758389999999995  0.84758389999999995  0.84758389999999995  0.84758389999999995  0.84758389999999995
     0.84758389999999995  0.84758389999999995  0.84758389999999995  0.84758389999999995  0.84758389999999995  0.84758389999999995  0.84758389999999995  0.84758389999999995  0.84758389999999995  0.84758389999999995
     0.84758389999999995  0.84758389999999995  0.84758389999999995  0.84758389999999995  0.84758389999999995  0.84758389999999995  0.84758389999999995  0.84758389999999995  0.84758389999999995  0.84758389999999995
     0.84758389999999995  0.84758389999999995  0.84758389999999995  0.84758389999999995  0.84758389999999995  0.84758389999999995  0.84758389999999995  0.84758389999999995  0.84758389999999995  0.84758389999999995
     0.84758389999999995  0.84758389999999995  0.84758389999999995  0.84758389999999995  0.84758389999999995  0.84758389999999995  0.84758389999999995  0.84758389999999995  0.84758389999999995  0.84758389999999995
     0.84758389999999995  0.84758389999999995  0.84758389999999995  0.84758389999999995  0.84758389999999995  0.84758389999999995  0.84758389999999995  0.84758389999999995  0.84758389999999995  0.84758389999999995
     0.84758389999999995  0.84758389999999995  0.84758389999999995  0.84758389999999995  0.84758389999999995  0.84758389999999995  0.84758389999999995  0.84758389999999995  0.84758389999999995  0.84758389999999995
     0.84758389999999995  0.84758389999999995  0.84758389999999995  0.84758389999999995  0.84758389999999995  0.84758389999999995  0.84758389999999995  0.84758389999999995  0.84758389999999995  0.84758389999999995
     0.84758389999999995  0.84758389999999995  0.84758389999999995  0.84758389999999995 8.4758389999999998e-07 8.4758389999999998e-07 8.4758389999999998e-07 8.4758389999999998e-07 8.4758389999999998e-07 8.4758389999999998e-07
    8.4758389999999998e-07 8.4758389999999998e-07 8.4758389999999998e-07 8.4758389999999998e-07 8.4758389999999998e-07  0.84758389999999995  0.84758389999999995  0.84758389999999995  0.84758389999999995  0.84758389999999995
     0.84758389999999995  0.84758389999999995  0.84758389999999995  0.84758389999999995  0.84758389999999995  0.84758389999999995  0.84758389999999995  0.84758389999999995  0.84758389999999995  0.84758389999999995
     0.84758389999999995  0.84758389999999995  0.84758389999999995  0.84758389999999995  0.84758389999999995  0.84758389999999995  0.84758389999999995  0.84758389999999995  0.84758389999999995  0.84758389999999995
     0.84758389999999995  0.84758389999999995  0.84758389999999995  0.84758389999999995  0.84758389999999995  0.84758389999999995  0.84758389999999995  0.84758389999999995  0.84758389999999995  0.84758389999999995
     0.84758389999999995  0.84758389999999995  0.84758389999999995  0.84758389999999995  0.84758389999999995  0.84758389999999995  0.84758389999999995  0.84758389999999995  0.84758389999999995  0.84758389999999995
     0.84758389999999995  0.84758389999999995  0.84758389999999995  0.84758389999999995  0.84758389999999995  0.84758389999999995  0.84758389999999995  0.84758389999999995  0.84758389999999995  0.84758389999999995
     0.84758389999999995  0.84758389999999995  0.84758389999999995  0.84758389999999995  0.84758389999999995  0.84758389999999995  0.84758389999999995  0.84758389999999995  0.84758389999999995  0.84758389999999995
     0.84758389999999995  0.84758389999999995  0.84758389999999995  0.84758389999999995  0.84758389999999995  0.84758389999999995  0.84758389999999995  0.84758389999999995  0.84758389999999995  0.84758389999999995
     0.84758389999999995  0.84758389999999995  0.84758389999999995  0.84758389999999995  0.84758389999999995  0.84758389999999995  0.84758389999999995  0.84758389999999995  0.84758389999999995  0.84758389999999995
     0.84758389999999995  0.84758389999999995  0.84758389999999995  0.84758389999999995  0.84758389999999995  0.84758389999999995  0.84758389999999995  0.84758389999999995  0.84758389999999995  0.84758389999999995
     0.84758389999999995  0.84758389999999995  0.84758389999999995  0.84758389999999995  0.84758389999999995  0.84758389999999995  0.84758389999999995  0.84758389999999995  0.84758389999999995  0.84758389999999995
     0.84758389999999995  0.84758389999999995  0.84758389999999995  0.84758389999999995  0.84758389999999995  0.84758389999999995  0.84758389999999995  0.84758389999999995  0.84758389999999995  0.84758389999999995
     0.84758389999999995  0.84758389999999995  0.84758389999999995  0.84758389999999995  0.84758389999999995  0.84758389999999995  0.84758389999999995  0.84758389999999995  0.84758389999999995  0.84758389999999995
     0.84758389999999995  0.84758389999999995  0.84758389999999995  0.84758389999999995  0.84758389999999995  0.84758389999999995  0.84758389999999995  0.84758389999999995  0.84758389999999995  0.84758389999999995
     0.84758389999999995  0.84758389999999995  0.84758389999999995  0.84758389999999995  0.84758389999999995  0.84758389999999995  0.84758389999999995  0.84758389999999995  0.84758389999999995  0.84758389999999995
     0.84758389999999995  0.84758389999999995  0.84758389999999995  0.84758389999999995  0.84758389999999995  0.84758389999999995  0.84758389999999995  0.84758389999999995  0.84758389999999995  0.84758389999999995
     0.84758389999999995  0.84758389999999995  0.84758389999999995  0.84758389999999995  0.84758389999999995  0.84758389999999995  0.84758389999999995  0.84758389999999995  0.84758389999999995  0.84758389999999995
     0.84758389999999995  0.84758389999999995  0.84758389999999995  0.84758389999999995  0.84758389999999995  0.84758389999999995  0.84758389999999995  0.84758389999999995  0.84758389999999995  0.84758389999999995
     0.84758389999999995  0.84758389999999995  0.84758389999999995  0.84758389999999995
END GRIDDATA

