begin options
  PRINT_OPTION SUMMARY
end options

begin nonlinear
	outer_hclose 1.e-3
	outer_maximum 500 
	under_relaxation dbd
	under_relaxation_theta 0.90
	under_relaxation_kappa 0.100000E-03
	under_relaxation_gamma 0.
	under_relaxation_momentum 0.10
	BACKTRACKING_NUMBER 20
	BACKTRACKING_TOLERANCE 2.
	BACKTRACKING_REDUCTION_FACTOR 0.6
	BACKTRACKING_RESIDUAL_LIMIT 1.0
end nonlinear

begin linear
	inner_hclose 1.0e-5
	inner_rclose .0  RELATIVE_RCLOSE
  #inner_rclose 0.001
	inner_maximum 200
	linear_acceleration bicgstab
	scaling_method none
	REORDERING_METHOD none
	relaxation_factor 0.97
	NUMBER_ORTHOGONALIZATIONS 7
	PRECONDITIONER_LEVELS 3
	PRECONDITIONER_DROP_TOLERANCE 1.0e-4
end linear
