begin options
  print_option summary
end options

begin nonlinear
	outer_dvclose 1.e-3
	outer_maximum 500 
	under_relaxation dbd
	under_relaxation_theta 0.90
	under_relaxation_kappa 0.100000e-03
	under_relaxation_gamma 0.
	under_relaxation_momentum 0.10
	backtracking_number 20
	backtracking_tolerance 2.
	backtracking_reduction_factor 0.6
	backtracking_residual_limit 1.0
end nonlinear

begin linear
	inner_dvclose 1.0e-5
	inner_rclose .0  relative_rclose
  #inner_rclose 0.001
	inner_maximum 200
	linear_acceleration bicgstab
	scaling_method none
	reordering_method none
	relaxation_factor 0.97
	number_orthogonalizations 7
	preconditioner_levels 3
	preconditioner_drop_tolerance 1.0e-4
end linear
