#option block.  Note -- no comments allowed on auxiliary line
begin options
end options

BEGIN GRIDDATA
  iconvert LAYERED
    constant 1
  ss LAYERED
    constant 1.e-6
  sy LAYERED
    constant 0.01
END GRIDDATA
