BEGIN OPTIONS
  LENGTH_UNITS METERS
END OPTIONS

BEGIN DIMENSIONS
  NLAY 1
  NROW 151
  NCOL 151
END DIMENSIONS

BEGIN GRIDDATA
  delr
    CONSTANT   1072.90  DELR
  delc
    CONSTANT   1072.90  DELC
  top LAYERED
    CONSTANT     1.000000E+01  TOP
  botm LAYERED
    CONSTANT     0.000000E+00  BOTTOM
  idomain LAYERED
    CONSTANT                1
     
END GRIDDATA




