BEGIN OPTIONS
  HEAD FILEOUT test033.hds
END OPTIONS

BEGIN PERIOD 1
  PRINT BUDGET STEPS  1 24 48 72 96 120 144 168 192 216 240 264 288
  SAVE HEAD STEPS  1 24 48 72 96 120 144 168 192 216 240 264 288
END PERIOD
