# DRN8 input file, prepared by MF5to6 on 8/1/2016 at 14:29:17.

BEGIN Options
  PRINT_INPUT
END Options

BEGIN Dimensions
  MAXBOUND  9
END Dimensions

BEGIN PERIOD 1
  1  8  2    0.0000000        1.0000000
  1  8  3    0.0000000        1.0000000
  1  8  4    10.000000        1.0000000
  1  8  5    20.000000        1.0000000
  1  8  6    30.000000        1.0000000
  1  8  7    50.000000        1.0000000
  1  8  8    70.000000        1.0000000
  1  8  9    90.000000        1.0000000
  1  8  10    100.00000        1.0000000
END PERIOD
