# NPF8 input file, prepared by MF5to6 on 8/1/2016 at 14:29:17.

BEGIN Options
END Options

BEGIN GRIDDATA
  Icelltype LAYERED
    CONSTANT  1
    CONSTANT  0
    CONSTANT  0
    CONSTANT  0
    CONSTANT  0
  k  LAYERED
    CONSTANT   0.100000000E-02
    CONSTANT   0.100000000E-12
    CONSTANT   0.100000000E-03
    CONSTANT   0.100000000E-12
    CONSTANT   0.200000000E-03
  K33  LAYERED
    CONSTANT   0.100000000E-02
    CONSTANT   0.101163000E-05
    CONSTANT   0.100000000E-03
    CONSTANT   0.503778000E-06
    CONSTANT   0.200000000E-03
END GRIDDATA
