# CHD8 input file, prepared by mf5to15 on 4/10/2015 at 9:04:54.

BEGIN Options
  PRINT_FLOWS
  PRINT_INPUT
END Options

BEGIN Dimensions
  MAXBOUND  100
END Dimensions

BEGIN Period 1
 1 1 1 0.0314107583763
 1 1 2 0.0941083112213
 1 1 3 0.156434461572
 1 1 4 0.2181432366
 1 1 5 0.27899109997
 1 1 6 0.338737912978
 1 1 7 0.397147882257
 1 1 8 0.453990490355
 1 1 9 0.509041405475
 1 1 10 0.562083366817
 1 1 11 0.612907042001
 1 1 12 0.661311853209
 1 1 13 0.707106768773
 1 1 14 0.750111057092
 1 1 15 0.790154999895
 1 1 16 0.827080562039
 1 1 17 0.860742015208
 1 1 18 0.891006513031
 1 1 19 0.917754615366
 1 1 20 0.940880759678
 1 1 21 0.960293677645
 1 1 22 0.975916755352
 1 1 23 0.987688335652
 1 1 24 0.995561961497
 1 1 25 0.999506559285
 1 1 26 0.999506561491
 1 1 27 0.995561968105
 1 1 28 0.987688346637
 1 1 29 0.97591677067
 1 1 30 0.960293697235
 1 1 31 0.940880783464
 1 1 32 0.917754643253
 1 1 33 0.89100654491
 1 1 34 0.860742050953
 1 1 35 0.827080601509
 1 1 36 0.790155042933
 1 1 37 0.75011110353
 1 1 38 0.707106818426
 1 1 39 0.661311905882
 1 1 40 0.612907097486
 1 1 41 0.562083424895
 1 1 42 0.509041465917
 1 1 43 0.453990552921
 1 1 44 0.397147946702
 1 1 45 0.338737979046
 1 1 46 0.278991167402
 1 1 47 0.218143305128
 1 1 48 0.156434530928
 1 1 49 0.0941083811297
 1 1 50 0.0314108285617
 1 1 51 -0.0314106881909
 1 1 52 -0.0941082413128
 1 1 53 -0.156434392217
 1 1 54 -0.218143168071
 1 1 55 -0.278991032538
 1 1 56 -0.338737846909
 1 1 57 -0.397147817812
 1 1 58 -0.453990427788
 1 1 59 -0.509041345034
 1 1 60 -0.56208330874
 1 1 61 -0.612906986516
 1 1 62 -0.661311800536
 1 1 63 -0.70710671912
 1 1 64 -0.750111010655
 1 1 65 -0.790154956856
 1 1 66 -0.827080522569
 1 1 67 -0.860741979463
 1 1 68 -0.891006481151
 1 1 69 -0.917754587478
 1 1 70 -0.940880735891
 1 1 71 -0.960293658054
 1 1 72 -0.975916740034
 1 1 73 -0.987688324667
 1 1 74 -0.995561954889
 1 1 75 -0.999506557079
 1 1 76 -0.999506563696
 1 1 77 -0.995561974714
 1 1 78 -0.987688357622
 1 1 79 -0.975916785988
 1 1 80 -0.960293716826
 1 1 81 -0.94088080725
 1 1 82 -0.917754671141
 1 1 83 -0.891006576789
 1 1 84 -0.860742086698
 1 1 85 -0.827080640978
 1 1 86 -0.790155085971
 1 1 87 -0.750111149967
 1 1 88 -0.707106868079
 1 1 89 -0.661311958555
 1 1 90 -0.612907152971
 1 1 91 -0.562083482973
 1 1 92 -0.509041526358
 1 1 93 -0.453990615488
 1 1 94 -0.397148011147
 1 1 95 -0.338738045115
 1 1 96 -0.278991234834
 1 1 97 -0.218143373657
 1 1 98 -0.156434600284
 1 1 99 -0.0941084510381
 1 1 100 -0.0314108987471
END Period
