# DIS8 input file, prepared by mf5to15 on 4/10/2015 at 9:04:54.

BEGIN Options
  LENGTH_UNITS  METERS
END Options

BEGIN Dimensions
  NLAY  190
  NROW  1
  NCOL  100
END Dimensions

BEGIN GRIDDATA
  DELR
    CONSTANT    6.000000E-02        DELR
  DELC
    CONSTANT        1.000000        DELC
  TOP LAYERED
    CONSTANT    0.00000000        TOP array
  BOTM LAYERED
CONSTANT   -3.000000E-02                           #botm layer 1                  
CONSTANT   -6.000000E-02                           #botm layer 2                  
CONSTANT   -9.000000E-02                           #botm layer 3                  
CONSTANT   -1.200000E-01                           #botm layer 4                  
CONSTANT   -1.500000E-01                           #botm layer 5                  
CONSTANT   -1.800000E-01                           #botm layer 6                  
CONSTANT   -2.100000E-01                           #botm layer 7                  
CONSTANT   -2.400000E-01                           #botm layer 8                  
CONSTANT   -2.700000E-01                           #botm layer 9                  
CONSTANT   -3.000000E-01                           #botm layer 10                 
CONSTANT   -3.300000E-01                           #botm layer 11                 
CONSTANT   -3.600000E-01                           #botm layer 12                 
CONSTANT   -3.900000E-01                           #botm layer 13                 
CONSTANT   -4.200000E-01                           #botm layer 14                 
CONSTANT   -4.500000E-01                           #botm layer 15                 
CONSTANT   -4.800000E-01                           #botm layer 16                 
CONSTANT   -5.100000E-01                           #botm layer 17                 
CONSTANT   -5.400000E-01                           #botm layer 18                 
CONSTANT   -5.700000E-01                           #botm layer 19                 
CONSTANT   -6.000000E-01                           #botm layer 20                 
CONSTANT   -6.300000E-01                           #botm layer 21                 
CONSTANT   -6.600000E-01                           #botm layer 22                 
CONSTANT   -6.900000E-01                           #botm layer 23                 
CONSTANT   -7.200000E-01                           #botm layer 24                 
CONSTANT   -7.500000E-01                           #botm layer 25                 
CONSTANT   -7.800000E-01                           #botm layer 26                 
CONSTANT   -8.100000E-01                           #botm layer 27                 
CONSTANT   -8.400000E-01                           #botm layer 28                 
CONSTANT   -8.700000E-01                           #botm layer 29                 
CONSTANT   -9.000000E-01                           #botm layer 30                 
CONSTANT   -9.300000E-01                           #botm layer 31                 
CONSTANT   -9.600000E-01                           #botm layer 32                 
CONSTANT   -9.900000E-01                           #botm layer 33                 
CONSTANT   -1.020000E+00                           #botm layer 34                 
CONSTANT   -1.050000E+00                           #botm layer 35                 
CONSTANT   -1.080000E+00                           #botm layer 36                 
CONSTANT   -1.110000E+00                           #botm layer 37                 
CONSTANT   -1.140000E+00                           #botm layer 38                 
CONSTANT   -1.170000E+00                           #botm layer 39                 
CONSTANT   -1.200000E+00                           #botm layer 40                 
CONSTANT   -1.230000E+00                           #botm layer 41                 
CONSTANT   -1.260000E+00                           #botm layer 42                 
CONSTANT   -1.290000E+00                           #botm layer 43                 
CONSTANT   -1.320000E+00                           #botm layer 44                 
CONSTANT   -1.350000E+00                           #botm layer 45                 
CONSTANT   -1.380000E+00                           #botm layer 46                 
CONSTANT   -1.410000E+00                           #botm layer 47                 
CONSTANT   -1.440000E+00                           #botm layer 48                 
CONSTANT   -1.470000E+00                           #botm layer 49                 
CONSTANT   -1.500000E+00                           #botm layer 50                 
CONSTANT   -1.530000E+00                           #botm layer 51                 
CONSTANT   -1.560000E+00                           #botm layer 52                 
CONSTANT   -1.590000E+00                           #botm layer 53                 
CONSTANT   -1.620000E+00                           #botm layer 54                 
CONSTANT   -1.650000E+00                           #botm layer 55                 
CONSTANT   -1.680000E+00                           #botm layer 56                 
CONSTANT   -1.710000E+00                           #botm layer 57                 
CONSTANT   -1.740000E+00                           #botm layer 58                 
CONSTANT   -1.770000E+00                           #botm layer 59                 
CONSTANT   -1.800000E+00                           #botm layer 60                 
CONSTANT   -1.830000E+00                           #botm layer 61                 
CONSTANT   -1.860000E+00                           #botm layer 62                 
CONSTANT   -1.890000E+00                           #botm layer 63                 
CONSTANT   -1.920000E+00                           #botm layer 64                 
CONSTANT   -1.950000E+00                           #botm layer 65                 
CONSTANT   -1.980000E+00                           #botm layer 66                 
CONSTANT   -2.010000E+00                           #botm layer 67                 
CONSTANT   -2.040000E+00                           #botm layer 68                 
CONSTANT   -2.070000E+00                           #botm layer 69                 
CONSTANT   -2.100000E+00                           #botm layer 70                 
CONSTANT   -2.130000E+00                           #botm layer 71                 
CONSTANT   -2.160000E+00                           #botm layer 72                 
CONSTANT   -2.190000E+00                           #botm layer 73                 
CONSTANT   -2.220000E+00                           #botm layer 74                 
CONSTANT   -2.250000E+00                           #botm layer 75                 
CONSTANT   -2.280000E+00                           #botm layer 76                 
CONSTANT   -2.310000E+00                           #botm layer 77                 
CONSTANT   -2.340000E+00                           #botm layer 78                 
CONSTANT   -2.370000E+00                           #botm layer 79                 
CONSTANT   -2.400000E+00                           #botm layer 80                 
CONSTANT   -2.430000E+00                           #botm layer 81                 
CONSTANT   -2.460000E+00                           #botm layer 82                 
CONSTANT   -2.490000E+00                           #botm layer 83                 
CONSTANT   -2.520000E+00                           #botm layer 84                 
CONSTANT   -2.550000E+00                           #botm layer 85                 
CONSTANT   -2.580000E+00                           #botm layer 86                 
CONSTANT   -2.610000E+00                           #botm layer 87                 
CONSTANT   -2.640000E+00                           #botm layer 88                 
CONSTANT   -2.670000E+00                           #botm layer 89                 
CONSTANT   -2.700000E+00                           #botm layer 90                 
CONSTANT   -2.730000E+00                           #botm layer 91                 
CONSTANT   -2.760000E+00                           #botm layer 92                 
CONSTANT   -2.790000E+00                           #botm layer 93                 
CONSTANT   -2.820000E+00                           #botm layer 94                 
CONSTANT   -2.850000E+00                           #botm layer 95                 
CONSTANT   -2.880000E+00                           #botm layer 96                 
CONSTANT   -2.910000E+00                           #botm layer 97                 
CONSTANT   -2.940000E+00                           #botm layer 98                 
CONSTANT   -2.970000E+00                           #botm layer 99                 
CONSTANT   -3.000000E+00                           #botm layer 100                
CONSTANT   -3.030000E+00                           #botm layer 101                
CONSTANT   -3.060000E+00                           #botm layer 102                
CONSTANT   -3.090000E+00                           #botm layer 103                
CONSTANT   -3.120000E+00                           #botm layer 104                
CONSTANT   -3.150000E+00                           #botm layer 105                
CONSTANT   -3.180000E+00                           #botm layer 106                
CONSTANT   -3.210000E+00                           #botm layer 107                
CONSTANT   -3.240000E+00                           #botm layer 108                
CONSTANT   -3.270000E+00                           #botm layer 109                
CONSTANT   -3.300000E+00                           #botm layer 110                
CONSTANT   -3.330000E+00                           #botm layer 111                
CONSTANT   -3.360000E+00                           #botm layer 112                
CONSTANT   -3.390000E+00                           #botm layer 113                
CONSTANT   -3.420000E+00                           #botm layer 114                
CONSTANT   -3.450000E+00                           #botm layer 115                
CONSTANT   -3.480000E+00                           #botm layer 116                
CONSTANT   -3.510000E+00                           #botm layer 117                
CONSTANT   -3.540000E+00                           #botm layer 118                
CONSTANT   -3.570000E+00                           #botm layer 119                
CONSTANT   -3.600000E+00                           #botm layer 120                
CONSTANT   -3.630000E+00                           #botm layer 121                
CONSTANT   -3.660000E+00                           #botm layer 122                
CONSTANT   -3.690000E+00                           #botm layer 123                
CONSTANT   -3.720000E+00                           #botm layer 124                
CONSTANT   -3.750000E+00                           #botm layer 125                
CONSTANT   -3.780000E+00                           #botm layer 126                
CONSTANT   -3.810000E+00                           #botm layer 127                
CONSTANT   -3.840000E+00                           #botm layer 128                
CONSTANT   -3.870000E+00                           #botm layer 129                
CONSTANT   -3.900000E+00                           #botm layer 130                
CONSTANT   -3.930000E+00                           #botm layer 131                
CONSTANT   -3.960000E+00                           #botm layer 132                
CONSTANT   -3.990000E+00                           #botm layer 133                
CONSTANT   -4.020000E+00                           #botm layer 134                
CONSTANT   -4.050000E+00                           #botm layer 135                
CONSTANT   -4.080000E+00                           #botm layer 136                
CONSTANT   -4.110000E+00                           #botm layer 137                
CONSTANT   -4.140000E+00                           #botm layer 138                
CONSTANT   -4.170000E+00                           #botm layer 139                
CONSTANT   -4.200000E+00                           #botm layer 140                
CONSTANT   -4.230000E+00                           #botm layer 141                
CONSTANT   -4.260000E+00                           #botm layer 142                
CONSTANT   -4.290000E+00                           #botm layer 143                
CONSTANT   -4.320000E+00                           #botm layer 144                
CONSTANT   -4.350000E+00                           #botm layer 145                
CONSTANT   -4.380000E+00                           #botm layer 146                
CONSTANT   -4.410000E+00                           #botm layer 147                
CONSTANT   -4.440000E+00                           #botm layer 148                
CONSTANT   -4.470000E+00                           #botm layer 149                
CONSTANT   -4.500000E+00                           #botm layer 150                
CONSTANT   -4.530000E+00                           #botm layer 151                
CONSTANT   -4.560000E+00                           #botm layer 152                
CONSTANT   -4.590000E+00                           #botm layer 153                
CONSTANT   -4.620000E+00                           #botm layer 154                
CONSTANT   -4.650000E+00                           #botm layer 155                
CONSTANT   -4.680000E+00                           #botm layer 156                
CONSTANT   -4.710000E+00                           #botm layer 157                
CONSTANT   -4.740000E+00                           #botm layer 158                
CONSTANT   -4.770000E+00                           #botm layer 159                
CONSTANT   -4.800000E+00                           #botm layer 160                
CONSTANT   -4.830000E+00                           #botm layer 161                
CONSTANT   -4.860000E+00                           #botm layer 162                
CONSTANT   -4.890000E+00                           #botm layer 163                
CONSTANT   -4.920000E+00                           #botm layer 164                
CONSTANT   -4.950000E+00                           #botm layer 165                
CONSTANT   -4.980000E+00                           #botm layer 166                
CONSTANT   -5.010000E+00                           #botm layer 167                
CONSTANT   -5.040000E+00                           #botm layer 168                
CONSTANT   -5.070000E+00                           #botm layer 169                
CONSTANT   -5.100000E+00                           #botm layer 170                
CONSTANT   -5.130000E+00                           #botm layer 171                
CONSTANT   -5.160000E+00                           #botm layer 172                
CONSTANT   -5.190000E+00                           #botm layer 173                
CONSTANT   -5.220000E+00                           #botm layer 174                
CONSTANT   -5.250000E+00                           #botm layer 175                
CONSTANT   -5.280000E+00                           #botm layer 176                
CONSTANT   -5.310000E+00                           #botm layer 177                
CONSTANT   -5.340000E+00                           #botm layer 178                
CONSTANT   -5.370000E+00                           #botm layer 179                
CONSTANT   -5.400000E+00                           #botm layer 180                
CONSTANT   -5.430000E+00                           #botm layer 181                
CONSTANT   -5.460000E+00                           #botm layer 182                
CONSTANT   -5.490000E+00                           #botm layer 183                
CONSTANT   -5.520000E+00                           #botm layer 184                
CONSTANT   -5.550000E+00                           #botm layer 185                
CONSTANT   -5.580000E+00                           #botm layer 186                
CONSTANT   -5.610000E+00                           #botm layer 187                
CONSTANT   -5.640000E+00                           #botm layer 188                
CONSTANT   -5.670000E+00                           #botm layer 189                
CONSTANT   -5.700000E+00                           #botm layer 190
END GRIDDATA
