
BEGIN OPTIONS
  HEAD FILEOUT pbc.hds
  BUDGET FILEOUT pbc.cbc
END OPTIONS

BEGIN PERIOD 1
  PRINT HEAD ALL
  SAVE HEAD ALL
  PRINT BUDGET ALL
  SAVE BUDGET ALL
END PERIOD
