# OC6 input file, prepared by MF5to6 on 6/5/2017 at 14:30:38.

BEGIN Options
  BUDGET FILEOUT  mf6.cbc
  HEAD FILEOUT  mf6.hds
  HEAD PRINT_FORMAT  COLUMNS 10  WIDTH 11  DIGITS 4  GENERAL             
END Options

BEGIN PERIOD 1
  PRINT BUDGET ALL
  SAVE HEAD ALL
  PRINT HEAD ALL
END PERIOD
