# MAW6 input file, prepared by MF5to6 on 6/5/2017 at 14:30:38.

BEGIN Options
  PRINT_INPUT
  PRINT_FLOWS
  BOUNDNAMES
  NO_WELL_STORAGE
END Options

BEGIN Dimensions
  NMAWWELLS  1
END Dimensions

BEGIN PACKAGEDATA
  1   0.15000000       -514.90000       -50.000000      THEIM  2  WELL
END PACKAGEDATA

BEGIN CONNECTIONDATA
  1  1  1  51  51     -50.000000       -514.90000        0.0000000        0.0000000    
  1  2  2  51  51     -50.000000       -514.90000        0.0000000        0.0000000    
END CONNECTIONDATA

BEGIN PERIOD 1  STEADY-STATE
  1  RATE   -1767.00000
END PERIOD
