# IMS6 input file, prepared by MF5to6 on 6/5/2017 at 14:30:38.

BEGIN Options
  PRINT_OPTION  SUMMARY
  COMPLEXITY  SIMPLE
END Options

BEGIN Nonlinear
  OUTER_HCLOSE   0.1000000E-06
  OUTER_MAXIMUM  500
  UNDER_RELAXATION  DBD
  UNDER_RELAXATION_THETA   0.9000000    
  UNDER_RELAXATION_KAPPA   0.1000000E-03
  UNDER_RELAXATION_GAMMA    0.000000    
  UNDER_RELAXATION_MOMENTUM   0.1000000    
END Nonlinear

BEGIN LINEAR
  INNER_MAXIMUM  100
  INNER_HCLOSE   0.1000000E-06
  INNER_RCLOSE   0.1000000    
  LINEAR_ACCELERATION  BICGSTAB
  PRECONDITIONER_LEVELS  3
  PRECONDITIONER_DROP_TOLERANCE   0.1000000E-03
  NUMBER_ORTHOGONALIZATIONS  7
  REORDERING_METHOD  NONE
END LINEAR
