# STO6 input file, prepared by MF5to6 on 6/5/2017 at 14:30:38.

BEGIN Options
END Options

BEGIN GRIDDATA
  ICONVERT LAYERED
    CONSTANT  0
    CONSTANT  0
  SS LAYERED
    CONSTANT   0.10000000E-03
    CONSTANT   0.10000000E-03
  SY LAYERED
    CONSTANT    0.0000000    
    CONSTANT    0.0000000    
END GRIDDATA
