# ims6 input file, prepared by mf5to6 on 6/5/2017 at 14:30:38.

begin options
  print_option  summary
  complexity  simple
end options

begin nonlinear
  outer_dvclose   0.1000000e-06
  outer_maximum  500
  under_relaxation  dbd
  under_relaxation_theta   0.9000000    
  under_relaxation_kappa   0.1000000e-03
  under_relaxation_gamma    0.000000    
  under_relaxation_momentum   0.1000000    
end nonlinear

begin linear
  inner_maximum  100
  inner_dvclose   0.1000000e-06
  inner_rclose   0.1000000    
  linear_acceleration  bicgstab
  preconditioner_levels  3
  preconditioner_drop_tolerance   0.1000000e-03
  number_orthogonalizations  7
  reordering_method  none
end linear
