# IC6 input file, prepared by MF5to6 on 6/5/2017 at 14:30:38.

BEGIN Options
END Options

BEGIN GRIDDATA
  STRT LAYERED
    CONSTANT    3.050000    
    CONSTANT    9.140000    
END GRIDDATA
