# NPF6 input file, prepared by MF5to6 on 6/5/2017 at 14:30:38.

BEGIN Options
  SAVE_FLOWS  mf6_NT_Transient.cbc
END Options

BEGIN GRIDDATA
  Icelltype LAYERED
    CONSTANT  0
    CONSTANT  0
  K  LAYERED
    CONSTANT    1.00000000    
    CONSTANT    1.00000000    
  K33  LAYERED
    CONSTANT   0.100000000E-15
    CONSTANT   0.100000000E-15
  K22  LAYERED
    CONSTANT   0.500000000    
    CONSTANT   0.500000000    
END GRIDDATA
