BEGIN options
END options

BEGIN dimensions
  MAXBOUND  30
END dimensions

BEGIN period  1
  1 16 11       0.90000000  100000.00000000      -2.00000000
  1 17 11       0.90000000  100000.00000000      -2.00000000
  1 18 11       0.90000000  100000.00000000      -2.00000000
  1 19 11       0.90000000  100000.00000000      -2.00000000
  1 20 11       0.90000000  100000.00000000      -2.00000000
  1 21 11       0.90000000  100000.00000000      -2.00000000
  1 22 11       0.90000000  100000.00000000      -2.00000000
  1 23 11       0.90000000  100000.00000000      -2.00000000
  1 24 11       0.90000000  100000.00000000      -2.00000000
  1 25 11       0.90000000  100000.00000000      -2.00000000
  1 26 11       0.90000000  100000.00000000      -2.00000000
  1 27 11       0.90000000  100000.00000000      -2.00000000
  1 28 11       0.90000000  100000.00000000      -2.00000000
  1 29 11       0.90000000  100000.00000000      -2.00000000
  1 30 11       0.90000000  100000.00000000      -2.00000000
END period  1

