BEGIN options
  auxiliary  angldegx  cdist
END options

BEGIN dimensions
  NEXG  210
END dimensions

BEGIN exchangedata
 1 15 1    1 16 1  1     83.333333330      83.33333333     166.66666667     270.00000000     166.666666670
 1 15 2    1 16 2  1     83.333333330      83.33333333     166.66666667     270.00000000     166.666666670
 1 15 3    1 16 3  1     83.333333330      83.33333333     166.66666667     270.00000000     166.666666670
 1 15 4    1 16 4  1     83.333333330      83.33333333     166.66666667     270.00000000     166.666666670
 1 15 5    1 16 5  1     83.333333330      83.33333333     166.66666667     270.00000000     166.666666670
 1 15 6    1 16 6  1     83.333333330      83.33333333     166.66666667     270.00000000     166.666666670
 1 15 7    1 16 7  1     83.333333330      83.33333333     166.66666667     270.00000000     166.666666670
 1 15 8    1 16 8  1     83.333333330      83.33333333     166.66666667     270.00000000     166.666666670
 1 15 9    1 16 9  1     83.333333330      83.33333333     166.66666667     270.00000000     166.666666670
 1 15 10   1 16 10  1     83.333333330      83.33333333     166.66666667     270.00000000     166.666666670
 1 15 11   1 16 11  1     83.333333330      83.33333333     166.66666667     270.00000000     166.666666670
 1 15 12   1 16 12  1     83.333333330      83.33333333     166.66666667     270.00000000     166.666666670
  1 15 13   1 16 13  1     83.333333330      83.33333333     166.66666667     270.00000000     166.666666670
  1 15 14   1 16 14  1     83.333333330      83.33333333     166.66666667     270.00000000     166.666666670
  1 15 15   1 16 15  1     83.333333330      83.33333333     166.66666667     270.00000000     166.666666670
  1 15 16   1 16 16  1     83.333333330      83.33333333     166.66666667     270.00000000     166.666666670
  1 15 17   1 16 17  1     83.333333330      83.33333333     166.66666667     270.00000000     166.666666670
  1 15 18   1 16 18  1     83.333333330      83.33333333     166.66666667     270.00000000     166.666666670
  1 15 19   1 16 19  1     83.333333330      83.33333333     166.66666667     270.00000000     166.666666670
  1 15 20   1 16 20  1     83.333333330      83.33333333     166.66666667     270.00000000     166.666666670
  1 15 21   1 16 21  1     83.333333330      83.33333333     166.66666667     270.00000000     166.666666670
  1 15 22   1 16 22  1     83.333333330      83.33333333     166.66666667     270.00000000     166.666666670
  1 15 23   1 16 23  1     83.333333330      83.33333333     166.66666667     270.00000000     166.666666670
  1 15 24   1 16 24  1     83.333333330      83.33333333     166.66666667     270.00000000     166.666666670
  1 15 25   1 16 25  1     83.333333330      83.33333333     166.66666667     270.00000000     166.666666670
  1 15 26   1 16 26  1     83.333333330      83.33333333     166.66666667     270.00000000     166.666666670
  1 15 27   1 16 27  1     83.333333330      83.33333333     166.66666667     270.00000000     166.666666670
  1 15 28   1 16 28  1     83.333333330      83.33333333     166.66666667     270.00000000     166.666666670
  1 15 29   1 16 29  1     83.333333330      83.33333333     166.66666667     270.00000000     166.666666670
  1 15 30   1 16 30  1     83.333333330      83.33333333     166.66666667     270.00000000     166.666666670
  1 15 31   1 16 31  1     83.333333330      83.33333333     166.66666667     270.00000000     166.666666670
  1 15 32   1 16 32  1     83.333333330      83.33333333     166.66666667     270.00000000     166.666666670
  1 15 33   1 16 33  1     83.333333330      83.33333333     166.66666667     270.00000000     166.666666670
  1 15 34   1 16 34  1     83.333333330      83.33333333     166.66666667     270.00000000     166.666666670
  1 15 35   1 16 35  1     83.333333330      83.33333333     166.66666667     270.00000000     166.666666670
  1 15 36   1 16 36  1     83.333333330      83.33333333     166.66666667     270.00000000     166.666666670
  1 15 37   1 16 37  1     83.333333330      83.33333333     166.66666667     270.00000000     166.666666670
  1 15 38   1 16 38  1     83.333333330      83.33333333     166.66666667     270.00000000     166.666666670
  1 15 39   1 16 39  1     83.333333330      83.33333333     166.66666667     270.00000000     166.666666670
  1 15 40   1 16 40  1     83.333333330      83.33333333     166.66666667     270.00000000     166.666666670
  1 15 41   1 16 41  1     83.333333330      83.33333333     166.66666667     270.00000000     166.666666670
  1 15 42   1 16 42  1     83.333333330      83.33333333     166.66666667     270.00000000     166.666666670
 2 15 1    2 16 1  1     83.333333330      83.33333333     166.66666667     270.00000000     166.666666670
 2 15 2    2 16 2  1     83.333333330      83.33333333     166.66666667     270.00000000     166.666666670
 2 15 3    2 16 3  1     83.333333330      83.33333333     166.66666667     270.00000000     166.666666670
 2 15 4    2 16 4  1     83.333333330      83.33333333     166.66666667     270.00000000     166.666666670
 2 15 5    2 16 5  1     83.333333330      83.33333333     166.66666667     270.00000000     166.666666670
 2 15 6    2 16 6  1     83.333333330      83.33333333     166.66666667     270.00000000     166.666666670
 2 15 7    2 16 7  1     83.333333330      83.33333333     166.66666667     270.00000000     166.666666670
 2 15 8    2 16 8  1     83.333333330      83.33333333     166.66666667     270.00000000     166.666666670
 2 15 9    2 16 9  1     83.333333330      83.33333333     166.66666667     270.00000000     166.666666670
 2 15 10   2 16 10  1     83.333333330      83.33333333     166.66666667     270.00000000     166.666666670
 2 15 11   2 16 11  1     83.333333330      83.33333333     166.66666667     270.00000000     166.666666670
 2 15 12   2 16 12  1     83.333333330      83.33333333     166.66666667     270.00000000     166.666666670
  2 15 13   2 16 13  1     83.333333330      83.33333333     166.66666667     270.00000000     166.666666670
  2 15 14   2 16 14  1     83.333333330      83.33333333     166.66666667     270.00000000     166.666666670
  2 15 15   2 16 15  1     83.333333330      83.33333333     166.66666667     270.00000000     166.666666670
  2 15 16   2 16 16  1     83.333333330      83.33333333     166.66666667     270.00000000     166.666666670
  2 15 17   2 16 17  1     83.333333330      83.33333333     166.66666667     270.00000000     166.666666670
  2 15 18   2 16 18  1     83.333333330      83.33333333     166.66666667     270.00000000     166.666666670
  2 15 19   2 16 19  1     83.333333330      83.33333333     166.66666667     270.00000000     166.666666670
  2 15 20   2 16 20  1     83.333333330      83.33333333     166.66666667     270.00000000     166.666666670
  2 15 21   2 16 21  1     83.333333330      83.33333333     166.66666667     270.00000000     166.666666670
  2 15 22   2 16 22  1     83.333333330      83.33333333     166.66666667     270.00000000     166.666666670
  2 15 23   2 16 23  1     83.333333330      83.33333333     166.66666667     270.00000000     166.666666670
  2 15 24   2 16 24  1     83.333333330      83.33333333     166.66666667     270.00000000     166.666666670
  2 15 25   2 16 25  1     83.333333330      83.33333333     166.66666667     270.00000000     166.666666670
  2 15 26   2 16 26  1     83.333333330      83.33333333     166.66666667     270.00000000     166.666666670
  2 15 27   2 16 27  1     83.333333330      83.33333333     166.66666667     270.00000000     166.666666670
  2 15 28   2 16 28  1     83.333333330      83.33333333     166.66666667     270.00000000     166.666666670
  2 15 29   2 16 29  1     83.333333330      83.33333333     166.66666667     270.00000000     166.666666670
  2 15 30   2 16 30  1     83.333333330      83.33333333     166.66666667     270.00000000     166.666666670
  2 15 31   2 16 31  1     83.333333330      83.33333333     166.66666667     270.00000000     166.666666670
  2 15 32   2 16 32  1     83.333333330      83.33333333     166.66666667     270.00000000     166.666666670
  2 15 33   2 16 33  1     83.333333330      83.33333333     166.66666667     270.00000000     166.666666670
  2 15 34   2 16 34  1     83.333333330      83.33333333     166.66666667     270.00000000     166.666666670
  2 15 35   2 16 35  1     83.333333330      83.33333333     166.66666667     270.00000000     166.666666670
  2 15 36   2 16 36  1     83.333333330      83.33333333     166.66666667     270.00000000     166.666666670
  2 15 37   2 16 37  1     83.333333330      83.33333333     166.66666667     270.00000000     166.666666670
  2 15 38   2 16 38  1     83.333333330      83.33333333     166.66666667     270.00000000     166.666666670
  2 15 39   2 16 39  1     83.333333330      83.33333333     166.66666667     270.00000000     166.666666670
  2 15 40   2 16 40  1     83.333333330      83.33333333     166.66666667     270.00000000     166.666666670
  2 15 41   2 16 41  1     83.333333330      83.33333333     166.66666667     270.00000000     166.666666670
  2 15 42   2 16 42  1     83.333333330      83.33333333     166.66666667     270.00000000     166.666666670
 3 15 1    3 16 1  1     83.333333330      83.33333333     166.66666667     270.00000000     166.666666670
 3 15 2    3 16 2  1     83.333333330      83.33333333     166.66666667     270.00000000     166.666666670
 3 15 3    3 16 3  1     83.333333330      83.33333333     166.66666667     270.00000000     166.666666670
 3 15 4    3 16 4  1     83.333333330      83.33333333     166.66666667     270.00000000     166.666666670
 3 15 5    3 16 5  1     83.333333330      83.33333333     166.66666667     270.00000000     166.666666670
 3 15 6    3 16 6  1     83.333333330      83.33333333     166.66666667     270.00000000     166.666666670
 3 15 7    3 16 7  1     83.333333330      83.33333333     166.66666667     270.00000000     166.666666670
 3 15 8    3 16 8  1     83.333333330      83.33333333     166.66666667     270.00000000     166.666666670
 3 15 9    3 16 9  1     83.333333330      83.33333333     166.66666667     270.00000000     166.666666670
 3 15 10   3 16 10  1     83.333333330      83.33333333     166.66666667     270.00000000     166.666666670
 3 15 11   3 16 11  1     83.333333330      83.33333333     166.66666667     270.00000000     166.666666670
 3 15 12   3 16 12  1     83.333333330      83.33333333     166.66666667     270.00000000     166.666666670
  3 15 13   3 16 13  1     83.333333330      83.33333333     166.66666667     270.00000000     166.666666670
  3 15 14   3 16 14  1     83.333333330      83.33333333     166.66666667     270.00000000     166.666666670
  3 15 15   3 16 15  1     83.333333330      83.33333333     166.66666667     270.00000000     166.666666670
  3 15 16   3 16 16  1     83.333333330      83.33333333     166.66666667     270.00000000     166.666666670
  3 15 17   3 16 17  1     83.333333330      83.33333333     166.66666667     270.00000000     166.666666670
  3 15 18   3 16 18  1     83.333333330      83.33333333     166.66666667     270.00000000     166.666666670
  3 15 19   3 16 19  1     83.333333330      83.33333333     166.66666667     270.00000000     166.666666670
  3 15 20   3 16 20  1     83.333333330      83.33333333     166.66666667     270.00000000     166.666666670
  3 15 21   3 16 21  1     83.333333330      83.33333333     166.66666667     270.00000000     166.666666670
  3 15 22   3 16 22  1     83.333333330      83.33333333     166.66666667     270.00000000     166.666666670
  3 15 23   3 16 23  1     83.333333330      83.33333333     166.66666667     270.00000000     166.666666670
  3 15 24   3 16 24  1     83.333333330      83.33333333     166.66666667     270.00000000     166.666666670
  3 15 25   3 16 25  1     83.333333330      83.33333333     166.66666667     270.00000000     166.666666670
  3 15 26   3 16 26  1     83.333333330      83.33333333     166.66666667     270.00000000     166.666666670
  3 15 27   3 16 27  1     83.333333330      83.33333333     166.66666667     270.00000000     166.666666670
  3 15 28   3 16 28  1     83.333333330      83.33333333     166.66666667     270.00000000     166.666666670
  3 15 29   3 16 29  1     83.333333330      83.33333333     166.66666667     270.00000000     166.666666670
  3 15 30   3 16 30  1     83.333333330      83.33333333     166.66666667     270.00000000     166.666666670
  3 15 31   3 16 31  1     83.333333330      83.33333333     166.66666667     270.00000000     166.666666670
  3 15 32   3 16 32  1     83.333333330      83.33333333     166.66666667     270.00000000     166.666666670
  3 15 33   3 16 33  1     83.333333330      83.33333333     166.66666667     270.00000000     166.666666670
  3 15 34   3 16 34  1     83.333333330      83.33333333     166.66666667     270.00000000     166.666666670
  3 15 35   3 16 35  1     83.333333330      83.33333333     166.66666667     270.00000000     166.666666670
  3 15 36   3 16 36  1     83.333333330      83.33333333     166.66666667     270.00000000     166.666666670
  3 15 37   3 16 37  1     83.333333330      83.33333333     166.66666667     270.00000000     166.666666670
  3 15 38   3 16 38  1     83.333333330      83.33333333     166.66666667     270.00000000     166.666666670
  3 15 39   3 16 39  1     83.333333330      83.33333333     166.66666667     270.00000000     166.666666670
  3 15 40   3 16 40  1     83.333333330      83.33333333     166.66666667     270.00000000     166.666666670
  3 15 41   3 16 41  1     83.333333330      83.33333333     166.66666667     270.00000000     166.666666670
  3 15 42   3 16 42  1     83.333333330      83.33333333     166.66666667     270.00000000     166.666666670
 4 15 1    4 16 1  1     83.333333330      83.33333333     166.66666667     270.00000000     166.666666670
 4 15 2    4 16 2  1     83.333333330      83.33333333     166.66666667     270.00000000     166.666666670
 4 15 3    4 16 3  1     83.333333330      83.33333333     166.66666667     270.00000000     166.666666670
 4 15 4    4 16 4  1     83.333333330      83.33333333     166.66666667     270.00000000     166.666666670
 4 15 5    4 16 5  1     83.333333330      83.33333333     166.66666667     270.00000000     166.666666670
 4 15 6    4 16 6  1     83.333333330      83.33333333     166.66666667     270.00000000     166.666666670
 4 15 7    4 16 7  1     83.333333330      83.33333333     166.66666667     270.00000000     166.666666670
 4 15 8    4 16 8  1     83.333333330      83.33333333     166.66666667     270.00000000     166.666666670
 4 15 9    4 16 9  1     83.333333330      83.33333333     166.66666667     270.00000000     166.666666670
 4 15 10   4 16 10  1     83.333333330      83.33333333     166.66666667     270.00000000     166.666666670
 4 15 11   4 16 11  1     83.333333330      83.33333333     166.66666667     270.00000000     166.666666670
 4 15 12   4 16 12  1     83.333333330      83.33333333     166.66666667     270.00000000     166.666666670
  4 15 13   4 16 13  1     83.333333330      83.33333333     166.66666667     270.00000000     166.666666670
  4 15 14   4 16 14  1     83.333333330      83.33333333     166.66666667     270.00000000     166.666666670
  4 15 15   4 16 15  1     83.333333330      83.33333333     166.66666667     270.00000000     166.666666670
  4 15 16   4 16 16  1     83.333333330      83.33333333     166.66666667     270.00000000     166.666666670
  4 15 17   4 16 17  1     83.333333330      83.33333333     166.66666667     270.00000000     166.666666670
  4 15 18   4 16 18  1     83.333333330      83.33333333     166.66666667     270.00000000     166.666666670
  4 15 19   4 16 19  1     83.333333330      83.33333333     166.66666667     270.00000000     166.666666670
  4 15 20   4 16 20  1     83.333333330      83.33333333     166.66666667     270.00000000     166.666666670
  4 15 21   4 16 21  1     83.333333330      83.33333333     166.66666667     270.00000000     166.666666670
  4 15 22   4 16 22  1     83.333333330      83.33333333     166.66666667     270.00000000     166.666666670
  4 15 23   4 16 23  1     83.333333330      83.33333333     166.66666667     270.00000000     166.666666670
  4 15 24   4 16 24  1     83.333333330      83.33333333     166.66666667     270.00000000     166.666666670
  4 15 25   4 16 25  1     83.333333330      83.33333333     166.66666667     270.00000000     166.666666670
  4 15 26   4 16 26  1     83.333333330      83.33333333     166.66666667     270.00000000     166.666666670
  4 15 27   4 16 27  1     83.333333330      83.33333333     166.66666667     270.00000000     166.666666670
  4 15 28   4 16 28  1     83.333333330      83.33333333     166.66666667     270.00000000     166.666666670
  4 15 29   4 16 29  1     83.333333330      83.33333333     166.66666667     270.00000000     166.666666670
  4 15 30   4 16 30  1     83.333333330      83.33333333     166.66666667     270.00000000     166.666666670
  4 15 31   4 16 31  1     83.333333330      83.33333333     166.66666667     270.00000000     166.666666670
  4 15 32   4 16 32  1     83.333333330      83.33333333     166.66666667     270.00000000     166.666666670
  4 15 33   4 16 33  1     83.333333330      83.33333333     166.66666667     270.00000000     166.666666670
  4 15 34   4 16 34  1     83.333333330      83.33333333     166.66666667     270.00000000     166.666666670
  4 15 35   4 16 35  1     83.333333330      83.33333333     166.66666667     270.00000000     166.666666670
  4 15 36   4 16 36  1     83.333333330      83.33333333     166.66666667     270.00000000     166.666666670
  4 15 37   4 16 37  1     83.333333330      83.33333333     166.66666667     270.00000000     166.666666670
  4 15 38   4 16 38  1     83.333333330      83.33333333     166.66666667     270.00000000     166.666666670
  4 15 39   4 16 39  1     83.333333330      83.33333333     166.66666667     270.00000000     166.666666670
  4 15 40   4 16 40  1     83.333333330      83.33333333     166.66666667     270.00000000     166.666666670
  4 15 41   4 16 41  1     83.333333330      83.33333333     166.66666667     270.00000000     166.666666670
  4 15 42   4 16 42  1     83.333333330      83.33333333     166.66666667     270.00000000     166.666666670
 5 15 1    5 16 1  1     83.333333330      83.33333333     166.66666667     270.00000000     166.666666670
 5 15 2    5 16 2  1     83.333333330      83.33333333     166.66666667     270.00000000     166.666666670
 5 15 3    5 16 3  1     83.333333330      83.33333333     166.66666667     270.00000000     166.666666670
 5 15 4    5 16 4  1     83.333333330      83.33333333     166.66666667     270.00000000     166.666666670
 5 15 5    5 16 5  1     83.333333330      83.33333333     166.66666667     270.00000000     166.666666670
 5 15 6    5 16 6  1     83.333333330      83.33333333     166.66666667     270.00000000     166.666666670
 5 15 7    5 16 7  1     83.333333330      83.33333333     166.66666667     270.00000000     166.666666670
 5 15 8    5 16 8  1     83.333333330      83.33333333     166.66666667     270.00000000     166.666666670
 5 15 9    5 16 9  1     83.333333330      83.33333333     166.66666667     270.00000000     166.666666670
 5 15 10   5 16 10  1     83.333333330      83.33333333     166.66666667     270.00000000     166.666666670
 5 15 11   5 16 11  1     83.333333330      83.33333333     166.66666667     270.00000000     166.666666670
 5 15 12   5 16 12  1     83.333333330      83.33333333     166.66666667     270.00000000     166.666666670
  5 15 13   5 16 13  1     83.333333330      83.33333333     166.66666667     270.00000000     166.666666670
  5 15 14   5 16 14  1     83.333333330      83.33333333     166.66666667     270.00000000     166.666666670
  5 15 15   5 16 15  1     83.333333330      83.33333333     166.66666667     270.00000000     166.666666670
  5 15 16   5 16 16  1     83.333333330      83.33333333     166.66666667     270.00000000     166.666666670
  5 15 17   5 16 17  1     83.333333330      83.33333333     166.66666667     270.00000000     166.666666670
  5 15 18   5 16 18  1     83.333333330      83.33333333     166.66666667     270.00000000     166.666666670
  5 15 19   5 16 19  1     83.333333330      83.33333333     166.66666667     270.00000000     166.666666670
  5 15 20   5 16 20  1     83.333333330      83.33333333     166.66666667     270.00000000     166.666666670
  5 15 21   5 16 21  1     83.333333330      83.33333333     166.66666667     270.00000000     166.666666670
  5 15 22   5 16 22  1     83.333333330      83.33333333     166.66666667     270.00000000     166.666666670
  5 15 23   5 16 23  1     83.333333330      83.33333333     166.66666667     270.00000000     166.666666670
  5 15 24   5 16 24  1     83.333333330      83.33333333     166.66666667     270.00000000     166.666666670
  5 15 25   5 16 25  1     83.333333330      83.33333333     166.66666667     270.00000000     166.666666670
  5 15 26   5 16 26  1     83.333333330      83.33333333     166.66666667     270.00000000     166.666666670
  5 15 27   5 16 27  1     83.333333330      83.33333333     166.66666667     270.00000000     166.666666670
  5 15 28   5 16 28  1     83.333333330      83.33333333     166.66666667     270.00000000     166.666666670
  5 15 29   5 16 29  1     83.333333330      83.33333333     166.66666667     270.00000000     166.666666670
  5 15 30   5 16 30  1     83.333333330      83.33333333     166.66666667     270.00000000     166.666666670
  5 15 31   5 16 31  1     83.333333330      83.33333333     166.66666667     270.00000000     166.666666670
  5 15 32   5 16 32  1     83.333333330      83.33333333     166.66666667     270.00000000     166.666666670
  5 15 33   5 16 33  1     83.333333330      83.33333333     166.66666667     270.00000000     166.666666670
  5 15 34   5 16 34  1     83.333333330      83.33333333     166.66666667     270.00000000     166.666666670
  5 15 35   5 16 35  1     83.333333330      83.33333333     166.66666667     270.00000000     166.666666670
  5 15 36   5 16 36  1     83.333333330      83.33333333     166.66666667     270.00000000     166.666666670
  5 15 37   5 16 37  1     83.333333330      83.33333333     166.66666667     270.00000000     166.666666670
  5 15 38   5 16 38  1     83.333333330      83.33333333     166.66666667     270.00000000     166.666666670
  5 15 39   5 16 39  1     83.333333330      83.33333333     166.66666667     270.00000000     166.666666670
  5 15 40   5 16 40  1     83.333333330      83.33333333     166.66666667     270.00000000     166.666666670
  5 15 41   5 16 41  1     83.333333330      83.33333333     166.66666667     270.00000000     166.666666670
  5 15 42   5 16 42  1     83.333333330      83.33333333     166.66666667     270.00000000     166.666666670
END exchangedata

