BEGIN options
  auxiliary  angldegx  cdist
END options

BEGIN dimensions
  NEXG  360
END dimensions

BEGIN exchangedata
  1 26 5  1 1 1  1     250.00000000      83.33333333     166.66666667       0.00000000     372.67799625
  1 25 6  1 1 1  1     250.00000000      83.33333333     166.66666667     270.00000000     372.67799625
  1 25 6  1 1 2  1     250.00000000      83.33333333     166.66666667     270.00000000     333.33333333
  1 25 6  1 1 3  1     250.00000000      83.33333333     166.66666667     270.00000000     372.67799625
  1 25 7  1 1 4  1     250.00000000      83.33333333     166.66666667     270.00000000     372.67799625
  1 25 7  1 1 5  1     250.00000000      83.33333333     166.66666667     270.00000000     333.33333333
  1 25 7  1 1 6  1     250.00000000      83.33333333     166.66666667     270.00000000     372.67799625
  1 25 8  1 1 7  1     250.00000000      83.33333333     166.66666667     270.00000000     372.67799625
  1 25 8  1 1 8  1     250.00000000      83.33333333     166.66666667     270.00000000     333.33333333
  1 25 8  1 1 9  1     250.00000000      83.33333333     166.66666667     270.00000000     372.67799625
  1 25 9  1 1 10  1     250.00000000      83.33333333     166.66666667     270.00000000     372.67799625
  1 25 9  1 1 11  1     250.00000000      83.33333333     166.66666667     270.00000000     333.33333333
  1 25 9  1 1 12  1     250.00000000      83.33333333     166.66666667     270.00000000     372.67799625
  1 25 10  1 1 13  1     250.00000000      83.33333333     166.66666667     270.00000000     372.67799625
  1 25 10  1 1 14  1     250.00000000      83.33333333     166.66666667     270.00000000     333.33333333
  1 25 10  1 1 15  1     250.00000000      83.33333333     166.66666667     270.00000000     372.67799625
  1 25 11  1 1 16  1     250.00000000      83.33333333     166.66666667     270.00000000     372.67799625
  1 25 11  1 1 17  1     250.00000000      83.33333333     166.66666667     270.00000000     333.33333333
  1 25 11  1 1 18  1     250.00000000      83.33333333     166.66666667     270.00000000     372.67799625
  1 25 12  1 1 19  1     250.00000000      83.33333333     166.66666667     270.00000000     372.67799625
  1 25 12  1 1 20  1     250.00000000      83.33333333     166.66666667     270.00000000     333.33333333
  1 25 12  1 1 21  1     250.00000000      83.33333333     166.66666667     270.00000000     372.67799625
  1 25 13  1 1 22  1     250.00000000      83.33333333     166.66666667     270.00000000     372.67799625
  1 25 13  1 1 23  1     250.00000000      83.33333333     166.66666667     270.00000000     333.33333333
  1 25 13  1 1 24  1     250.00000000      83.33333333     166.66666667     270.00000000     372.67799625
  1 25 14  1 1 25  1     250.00000000      83.33333333     166.66666667     270.00000000     372.67799625
  1 25 14  1 1 26  1     250.00000000      83.33333333     166.66666667     270.00000000     333.33333333
  1 25 14  1 1 27  1     250.00000000      83.33333333     166.66666667     270.00000000     372.67799625
  1 25 15  1 1 28  1     250.00000000      83.33333333     166.66666667     270.00000000     372.67799625
  1 25 15  1 1 29  1     250.00000000      83.33333333     166.66666667     270.00000000     333.33333333
  1 25 15  1 1 30  1     250.00000000      83.33333333     166.66666667     270.00000000     372.67799625
  1 25 16  1 1 31  1     250.00000000      83.33333333     166.66666667     270.00000000     372.67799625
  1 25 16  1 1 32  1     250.00000000      83.33333333     166.66666667     270.00000000     333.33333333
  1 25 16  1 1 33  1     250.00000000      83.33333333     166.66666667     270.00000000     372.67799625
  1 25 17  1 1 34  1     250.00000000      83.33333333     166.66666667     270.00000000     372.67799625
  1 25 17  1 1 35  1     250.00000000      83.33333333     166.66666667     270.00000000     333.33333333
  1 25 17  1 1 36  1     250.00000000      83.33333333     166.66666667     270.00000000     372.67799625
  1 25 18  1 1 37  1     250.00000000      83.33333333     166.66666667     270.00000000     372.67799625
  1 25 18  1 1 38  1     250.00000000      83.33333333     166.66666667     270.00000000     333.33333333
  1 25 18  1 1 39  1     250.00000000      83.33333333     166.66666667     270.00000000     372.67799625
  1 25 19  1 1 40  1     250.00000000      83.33333333     166.66666667     270.00000000     372.67799625
  1 25 19  1 1 41  1     250.00000000      83.33333333     166.66666667     270.00000000     333.33333333
  1 26 20  1 1 42  1     250.00000000      83.33333333     166.66666667     180.00000000     372.67799625
  1 25 19  1 1 42  1     250.00000000      83.33333333     166.66666667     270.00000000     372.67799625
  1 26 5  1 2 1  1     250.00000000      83.33333333     166.66666667       0.00000000     333.33333333
  1 26 20  1 2 42  1     250.00000000      83.33333333     166.66666667     180.00000000     333.33333333
  1 26 5  1 3 1  1     250.00000000      83.33333333     166.66666667       0.00000000     372.67799625
  1 26 20  1 3 42  1     250.00000000      83.33333333     166.66666667     180.00000000     372.67799625
  1 27 5  1 4 1  1     250.00000000      83.33333333     166.66666667       0.00000000     372.67799625
  1 27 20  1 4 42  1     250.00000000      83.33333333     166.66666667     180.00000000     372.67799625
  1 27 5  1 5 1  1     250.00000000      83.33333333     166.66666667       0.00000000     333.33333333
  1 27 20  1 5 42  1     250.00000000      83.33333333     166.66666667     180.00000000     333.33333333
  1 27 5  1 6 1  1     250.00000000      83.33333333     166.66666667       0.00000000     372.67799625
  1 27 20  1 6 42  1     250.00000000      83.33333333     166.66666667     180.00000000     372.67799625
  1 28 5  1 7 1  1     250.00000000      83.33333333     166.66666667       0.00000000     372.67799625
  1 28 20  1 7 42  1     250.00000000      83.33333333     166.66666667     180.00000000     372.67799625
  1 28 5  1 8 1  1     250.00000000      83.33333333     166.66666667       0.00000000     333.33333333
  1 28 20  1 8 42  1     250.00000000      83.33333333     166.66666667     180.00000000     333.33333333
  1 28 5  1 9 1  1     250.00000000      83.33333333     166.66666667       0.00000000     372.67799625
  1 28 20  1 9 42  1     250.00000000      83.33333333     166.66666667     180.00000000     372.67799625
  1 29 5  1 10 1  1     250.00000000      83.33333333     166.66666667       0.00000000     372.67799625
  1 29 20  1 10 42  1     250.00000000      83.33333333     166.66666667     180.00000000     372.67799625
  1 29 5  1 11 1  1     250.00000000      83.33333333     166.66666667       0.00000000     333.33333333
  1 29 20  1 11 42  1     250.00000000      83.33333333     166.66666667     180.00000000     333.33333333
  1 29 5  1 12 1  1     250.00000000      83.33333333     166.66666667       0.00000000     372.67799625
  1 29 20  1 12 42  1     250.00000000      83.33333333     166.66666667     180.00000000     372.67799625
  1 30 5  1 13 1  1     250.00000000      83.33333333     166.66666667       0.00000000     372.67799625
  1 30 20  1 13 42  1     250.00000000      83.33333333     166.66666667     180.00000000     372.67799625
  1 30 5  1 14 1  1     250.00000000      83.33333333     166.66666667       0.00000000     333.33333333
  1 30 20  1 14 42  1     250.00000000      83.33333333     166.66666667     180.00000000     333.33333333
  1 30 5  1 15 1  1     250.00000000      83.33333333     166.66666667       0.00000000     372.67799625
  1 30 20  1 15 42  1     250.00000000      83.33333333     166.66666667     180.00000000     372.67799625
  2 26 5  2 1 1  1     250.00000000      83.33333333     166.66666667       0.00000000     372.67799625
  2 25 6  2 1 1  1     250.00000000      83.33333333     166.66666667     270.00000000     372.67799625
  2 25 6  2 1 2  1     250.00000000      83.33333333     166.66666667     270.00000000     333.33333333
  2 25 6  2 1 3  1     250.00000000      83.33333333     166.66666667     270.00000000     372.67799625
  2 25 7  2 1 4  1     250.00000000      83.33333333     166.66666667     270.00000000     372.67799625
  2 25 7  2 1 5  1     250.00000000      83.33333333     166.66666667     270.00000000     333.33333333
  2 25 7  2 1 6  1     250.00000000      83.33333333     166.66666667     270.00000000     372.67799625
  2 25 8  2 1 7  1     250.00000000      83.33333333     166.66666667     270.00000000     372.67799625
  2 25 8  2 1 8  1     250.00000000      83.33333333     166.66666667     270.00000000     333.33333333
  2 25 8  2 1 9  1     250.00000000      83.33333333     166.66666667     270.00000000     372.67799625
  2 25 9  2 1 10  1     250.00000000      83.33333333     166.66666667     270.00000000     372.67799625
  2 25 9  2 1 11  1     250.00000000      83.33333333     166.66666667     270.00000000     333.33333333
  2 25 9  2 1 12  1     250.00000000      83.33333333     166.66666667     270.00000000     372.67799625
  2 25 10  2 1 13  1     250.00000000      83.33333333     166.66666667     270.00000000     372.67799625
  2 25 10  2 1 14  1     250.00000000      83.33333333     166.66666667     270.00000000     333.33333333
  2 25 10  2 1 15  1     250.00000000      83.33333333     166.66666667     270.00000000     372.67799625
  2 25 11  2 1 16  1     250.00000000      83.33333333     166.66666667     270.00000000     372.67799625
  2 25 11  2 1 17  1     250.00000000      83.33333333     166.66666667     270.00000000     333.33333333
  2 25 11  2 1 18  1     250.00000000      83.33333333     166.66666667     270.00000000     372.67799625
  2 25 12  2 1 19  1     250.00000000      83.33333333     166.66666667     270.00000000     372.67799625
  2 25 12  2 1 20  1     250.00000000      83.33333333     166.66666667     270.00000000     333.33333333
  2 25 12  2 1 21  1     250.00000000      83.33333333     166.66666667     270.00000000     372.67799625
  2 25 13  2 1 22  1     250.00000000      83.33333333     166.66666667     270.00000000     372.67799625
  2 25 13  2 1 23  1     250.00000000      83.33333333     166.66666667     270.00000000     333.33333333
  2 25 13  2 1 24  1     250.00000000      83.33333333     166.66666667     270.00000000     372.67799625
  2 25 14  2 1 25  1     250.00000000      83.33333333     166.66666667     270.00000000     372.67799625
  2 25 14  2 1 26  1     250.00000000      83.33333333     166.66666667     270.00000000     333.33333333
  2 25 14  2 1 27  1     250.00000000      83.33333333     166.66666667     270.00000000     372.67799625
  2 25 15  2 1 28  1     250.00000000      83.33333333     166.66666667     270.00000000     372.67799625
  2 25 15  2 1 29  1     250.00000000      83.33333333     166.66666667     270.00000000     333.33333333
  2 25 15  2 1 30  1     250.00000000      83.33333333     166.66666667     270.00000000     372.67799625
  2 25 16  2 1 31  1     250.00000000      83.33333333     166.66666667     270.00000000     372.67799625
  2 25 16  2 1 32  1     250.00000000      83.33333333     166.66666667     270.00000000     333.33333333
  2 25 16  2 1 33  1     250.00000000      83.33333333     166.66666667     270.00000000     372.67799625
  2 25 17  2 1 34  1     250.00000000      83.33333333     166.66666667     270.00000000     372.67799625
  2 25 17  2 1 35  1     250.00000000      83.33333333     166.66666667     270.00000000     333.33333333
  2 25 17  2 1 36  1     250.00000000      83.33333333     166.66666667     270.00000000     372.67799625
  2 25 18  2 1 37  1     250.00000000      83.33333333     166.66666667     270.00000000     372.67799625
  2 25 18  2 1 38  1     250.00000000      83.33333333     166.66666667     270.00000000     333.33333333
  2 25 18  2 1 39  1     250.00000000      83.33333333     166.66666667     270.00000000     372.67799625
  2 25 19  2 1 40  1     250.00000000      83.33333333     166.66666667     270.00000000     372.67799625
  2 25 19  2 1 41  1     250.00000000      83.33333333     166.66666667     270.00000000     333.33333333
  2 26 20  2 1 42  1     250.00000000      83.33333333     166.66666667     180.00000000     372.67799625
  2 25 19  2 1 42  1     250.00000000      83.33333333     166.66666667     270.00000000     372.67799625
  2 26 5  2 2 1  1     250.00000000      83.33333333     166.66666667       0.00000000     333.33333333
  2 26 20  2 2 42  1     250.00000000      83.33333333     166.66666667     180.00000000     333.33333333
  2 26 5  2 3 1  1     250.00000000      83.33333333     166.66666667       0.00000000     372.67799625
  2 26 20  2 3 42  1     250.00000000      83.33333333     166.66666667     180.00000000     372.67799625
  2 27 5  2 4 1  1     250.00000000      83.33333333     166.66666667       0.00000000     372.67799625
  2 27 20  2 4 42  1     250.00000000      83.33333333     166.66666667     180.00000000     372.67799625
  2 27 5  2 5 1  1     250.00000000      83.33333333     166.66666667       0.00000000     333.33333333
  2 27 20  2 5 42  1     250.00000000      83.33333333     166.66666667     180.00000000     333.33333333
  2 27 5  2 6 1  1     250.00000000      83.33333333     166.66666667       0.00000000     372.67799625
  2 27 20  2 6 42  1     250.00000000      83.33333333     166.66666667     180.00000000     372.67799625
  2 28 5  2 7 1  1     250.00000000      83.33333333     166.66666667       0.00000000     372.67799625
  2 28 20  2 7 42  1     250.00000000      83.33333333     166.66666667     180.00000000     372.67799625
  2 28 5  2 8 1  1     250.00000000      83.33333333     166.66666667       0.00000000     333.33333333
  2 28 20  2 8 42  1     250.00000000      83.33333333     166.66666667     180.00000000     333.33333333
  2 28 5  2 9 1  1     250.00000000      83.33333333     166.66666667       0.00000000     372.67799625
  2 28 20  2 9 42  1     250.00000000      83.33333333     166.66666667     180.00000000     372.67799625
  2 29 5  2 10 1  1     250.00000000      83.33333333     166.66666667       0.00000000     372.67799625
  2 29 20  2 10 42  1     250.00000000      83.33333333     166.66666667     180.00000000     372.67799625
  2 29 5  2 11 1  1     250.00000000      83.33333333     166.66666667       0.00000000     333.33333333
  2 29 20  2 11 42  1     250.00000000      83.33333333     166.66666667     180.00000000     333.33333333
  2 29 5  2 12 1  1     250.00000000      83.33333333     166.66666667       0.00000000     372.67799625
  2 29 20  2 12 42  1     250.00000000      83.33333333     166.66666667     180.00000000     372.67799625
  2 30 5  2 13 1  1     250.00000000      83.33333333     166.66666667       0.00000000     372.67799625
  2 30 20  2 13 42  1     250.00000000      83.33333333     166.66666667     180.00000000     372.67799625
  2 30 5  2 14 1  1     250.00000000      83.33333333     166.66666667       0.00000000     333.33333333
  2 30 20  2 14 42  1     250.00000000      83.33333333     166.66666667     180.00000000     333.33333333
  2 30 5  2 15 1  1     250.00000000      83.33333333     166.66666667       0.00000000     372.67799625
  2 30 20  2 15 42  1     250.00000000      83.33333333     166.66666667     180.00000000     372.67799625
  3 26 5  3 1 1  1     250.00000000      83.33333333     166.66666667       0.00000000     372.67799625
  3 25 6  3 1 1  1     250.00000000      83.33333333     166.66666667     270.00000000     372.67799625
  3 25 6  3 1 2  1     250.00000000      83.33333333     166.66666667     270.00000000     333.33333333
  3 25 6  3 1 3  1     250.00000000      83.33333333     166.66666667     270.00000000     372.67799625
  3 25 7  3 1 4  1     250.00000000      83.33333333     166.66666667     270.00000000     372.67799625
  3 25 7  3 1 5  1     250.00000000      83.33333333     166.66666667     270.00000000     333.33333333
  3 25 7  3 1 6  1     250.00000000      83.33333333     166.66666667     270.00000000     372.67799625
  3 25 8  3 1 7  1     250.00000000      83.33333333     166.66666667     270.00000000     372.67799625
  3 25 8  3 1 8  1     250.00000000      83.33333333     166.66666667     270.00000000     333.33333333
  3 25 8  3 1 9  1     250.00000000      83.33333333     166.66666667     270.00000000     372.67799625
  3 25 9  3 1 10  1     250.00000000      83.33333333     166.66666667     270.00000000     372.67799625
  3 25 9  3 1 11  1     250.00000000      83.33333333     166.66666667     270.00000000     333.33333333
  3 25 9  3 1 12  1     250.00000000      83.33333333     166.66666667     270.00000000     372.67799625
  3 25 10  3 1 13  1     250.00000000      83.33333333     166.66666667     270.00000000     372.67799625
  3 25 10  3 1 14  1     250.00000000      83.33333333     166.66666667     270.00000000     333.33333333
  3 25 10  3 1 15  1     250.00000000      83.33333333     166.66666667     270.00000000     372.67799625
  3 25 11  3 1 16  1     250.00000000      83.33333333     166.66666667     270.00000000     372.67799625
  3 25 11  3 1 17  1     250.00000000      83.33333333     166.66666667     270.00000000     333.33333333
  3 25 11  3 1 18  1     250.00000000      83.33333333     166.66666667     270.00000000     372.67799625
  3 25 12  3 1 19  1     250.00000000      83.33333333     166.66666667     270.00000000     372.67799625
  3 25 12  3 1 20  1     250.00000000      83.33333333     166.66666667     270.00000000     333.33333333
  3 25 12  3 1 21  1     250.00000000      83.33333333     166.66666667     270.00000000     372.67799625
  3 25 13  3 1 22  1     250.00000000      83.33333333     166.66666667     270.00000000     372.67799625
  3 25 13  3 1 23  1     250.00000000      83.33333333     166.66666667     270.00000000     333.33333333
  3 25 13  3 1 24  1     250.00000000      83.33333333     166.66666667     270.00000000     372.67799625
  3 25 14  3 1 25  1     250.00000000      83.33333333     166.66666667     270.00000000     372.67799625
  3 25 14  3 1 26  1     250.00000000      83.33333333     166.66666667     270.00000000     333.33333333
  3 25 14  3 1 27  1     250.00000000      83.33333333     166.66666667     270.00000000     372.67799625
  3 25 15  3 1 28  1     250.00000000      83.33333333     166.66666667     270.00000000     372.67799625
  3 25 15  3 1 29  1     250.00000000      83.33333333     166.66666667     270.00000000     333.33333333
  3 25 15  3 1 30  1     250.00000000      83.33333333     166.66666667     270.00000000     372.67799625
  3 25 16  3 1 31  1     250.00000000      83.33333333     166.66666667     270.00000000     372.67799625
  3 25 16  3 1 32  1     250.00000000      83.33333333     166.66666667     270.00000000     333.33333333
  3 25 16  3 1 33  1     250.00000000      83.33333333     166.66666667     270.00000000     372.67799625
  3 25 17  3 1 34  1     250.00000000      83.33333333     166.66666667     270.00000000     372.67799625
  3 25 17  3 1 35  1     250.00000000      83.33333333     166.66666667     270.00000000     333.33333333
  3 25 17  3 1 36  1     250.00000000      83.33333333     166.66666667     270.00000000     372.67799625
  3 25 18  3 1 37  1     250.00000000      83.33333333     166.66666667     270.00000000     372.67799625
  3 25 18  3 1 38  1     250.00000000      83.33333333     166.66666667     270.00000000     333.33333333
  3 25 18  3 1 39  1     250.00000000      83.33333333     166.66666667     270.00000000     372.67799625
  3 25 19  3 1 40  1     250.00000000      83.33333333     166.66666667     270.00000000     372.67799625
  3 25 19  3 1 41  1     250.00000000      83.33333333     166.66666667     270.00000000     333.33333333
  3 26 20  3 1 42  1     250.00000000      83.33333333     166.66666667     180.00000000     372.67799625
  3 25 19  3 1 42  1     250.00000000      83.33333333     166.66666667     270.00000000     372.67799625
  3 26 5  3 2 1  1     250.00000000      83.33333333     166.66666667       0.00000000     333.33333333
  3 26 20  3 2 42  1     250.00000000      83.33333333     166.66666667     180.00000000     333.33333333
  3 26 5  3 3 1  1     250.00000000      83.33333333     166.66666667       0.00000000     372.67799625
  3 26 20  3 3 42  1     250.00000000      83.33333333     166.66666667     180.00000000     372.67799625
  3 27 5  3 4 1  1     250.00000000      83.33333333     166.66666667       0.00000000     372.67799625
  3 27 20  3 4 42  1     250.00000000      83.33333333     166.66666667     180.00000000     372.67799625
  3 27 5  3 5 1  1     250.00000000      83.33333333     166.66666667       0.00000000     333.33333333
  3 27 20  3 5 42  1     250.00000000      83.33333333     166.66666667     180.00000000     333.33333333
  3 27 5  3 6 1  1     250.00000000      83.33333333     166.66666667       0.00000000     372.67799625
  3 27 20  3 6 42  1     250.00000000      83.33333333     166.66666667     180.00000000     372.67799625
  3 28 5  3 7 1  1     250.00000000      83.33333333     166.66666667       0.00000000     372.67799625
  3 28 20  3 7 42  1     250.00000000      83.33333333     166.66666667     180.00000000     372.67799625
  3 28 5  3 8 1  1     250.00000000      83.33333333     166.66666667       0.00000000     333.33333333
  3 28 20  3 8 42  1     250.00000000      83.33333333     166.66666667     180.00000000     333.33333333
  3 28 5  3 9 1  1     250.00000000      83.33333333     166.66666667       0.00000000     372.67799625
  3 28 20  3 9 42  1     250.00000000      83.33333333     166.66666667     180.00000000     372.67799625
  3 29 5  3 10 1  1     250.00000000      83.33333333     166.66666667       0.00000000     372.67799625
  3 29 20  3 10 42  1     250.00000000      83.33333333     166.66666667     180.00000000     372.67799625
  3 29 5  3 11 1  1     250.00000000      83.33333333     166.66666667       0.00000000     333.33333333
  3 29 20  3 11 42  1     250.00000000      83.33333333     166.66666667     180.00000000     333.33333333
  3 29 5  3 12 1  1     250.00000000      83.33333333     166.66666667       0.00000000     372.67799625
  3 29 20  3 12 42  1     250.00000000      83.33333333     166.66666667     180.00000000     372.67799625
  3 30 5  3 13 1  1     250.00000000      83.33333333     166.66666667       0.00000000     372.67799625
  3 30 20  3 13 42  1     250.00000000      83.33333333     166.66666667     180.00000000     372.67799625
  3 30 5  3 14 1  1     250.00000000      83.33333333     166.66666667       0.00000000     333.33333333
  3 30 20  3 14 42  1     250.00000000      83.33333333     166.66666667     180.00000000     333.33333333
  3 30 5  3 15 1  1     250.00000000      83.33333333     166.66666667       0.00000000     372.67799625
  3 30 20  3 15 42  1     250.00000000      83.33333333     166.66666667     180.00000000     372.67799625
  4 26 5  4 1 1  1     250.00000000      83.33333333     166.66666667       0.00000000     372.67799625
  4 25 6  4 1 1  1     250.00000000      83.33333333     166.66666667     270.00000000     372.67799625
  4 25 6  4 1 2  1     250.00000000      83.33333333     166.66666667     270.00000000     333.33333333
  4 25 6  4 1 3  1     250.00000000      83.33333333     166.66666667     270.00000000     372.67799625
  4 25 7  4 1 4  1     250.00000000      83.33333333     166.66666667     270.00000000     372.67799625
  4 25 7  4 1 5  1     250.00000000      83.33333333     166.66666667     270.00000000     333.33333333
  4 25 7  4 1 6  1     250.00000000      83.33333333     166.66666667     270.00000000     372.67799625
  4 25 8  4 1 7  1     250.00000000      83.33333333     166.66666667     270.00000000     372.67799625
  4 25 8  4 1 8  1     250.00000000      83.33333333     166.66666667     270.00000000     333.33333333
  4 25 8  4 1 9  1     250.00000000      83.33333333     166.66666667     270.00000000     372.67799625
  4 25 9  4 1 10  1     250.00000000      83.33333333     166.66666667     270.00000000     372.67799625
  4 25 9  4 1 11  1     250.00000000      83.33333333     166.66666667     270.00000000     333.33333333
  4 25 9  4 1 12  1     250.00000000      83.33333333     166.66666667     270.00000000     372.67799625
  4 25 10  4 1 13  1     250.00000000      83.33333333     166.66666667     270.00000000     372.67799625
  4 25 10  4 1 14  1     250.00000000      83.33333333     166.66666667     270.00000000     333.33333333
  4 25 10  4 1 15  1     250.00000000      83.33333333     166.66666667     270.00000000     372.67799625
  4 25 11  4 1 16  1     250.00000000      83.33333333     166.66666667     270.00000000     372.67799625
  4 25 11  4 1 17  1     250.00000000      83.33333333     166.66666667     270.00000000     333.33333333
  4 25 11  4 1 18  1     250.00000000      83.33333333     166.66666667     270.00000000     372.67799625
  4 25 12  4 1 19  1     250.00000000      83.33333333     166.66666667     270.00000000     372.67799625
  4 25 12  4 1 20  1     250.00000000      83.33333333     166.66666667     270.00000000     333.33333333
  4 25 12  4 1 21  1     250.00000000      83.33333333     166.66666667     270.00000000     372.67799625
  4 25 13  4 1 22  1     250.00000000      83.33333333     166.66666667     270.00000000     372.67799625
  4 25 13  4 1 23  1     250.00000000      83.33333333     166.66666667     270.00000000     333.33333333
  4 25 13  4 1 24  1     250.00000000      83.33333333     166.66666667     270.00000000     372.67799625
  4 25 14  4 1 25  1     250.00000000      83.33333333     166.66666667     270.00000000     372.67799625
  4 25 14  4 1 26  1     250.00000000      83.33333333     166.66666667     270.00000000     333.33333333
  4 25 14  4 1 27  1     250.00000000      83.33333333     166.66666667     270.00000000     372.67799625
  4 25 15  4 1 28  1     250.00000000      83.33333333     166.66666667     270.00000000     372.67799625
  4 25 15  4 1 29  1     250.00000000      83.33333333     166.66666667     270.00000000     333.33333333
  4 25 15  4 1 30  1     250.00000000      83.33333333     166.66666667     270.00000000     372.67799625
  4 25 16  4 1 31  1     250.00000000      83.33333333     166.66666667     270.00000000     372.67799625
  4 25 16  4 1 32  1     250.00000000      83.33333333     166.66666667     270.00000000     333.33333333
  4 25 16  4 1 33  1     250.00000000      83.33333333     166.66666667     270.00000000     372.67799625
  4 25 17  4 1 34  1     250.00000000      83.33333333     166.66666667     270.00000000     372.67799625
  4 25 17  4 1 35  1     250.00000000      83.33333333     166.66666667     270.00000000     333.33333333
  4 25 17  4 1 36  1     250.00000000      83.33333333     166.66666667     270.00000000     372.67799625
  4 25 18  4 1 37  1     250.00000000      83.33333333     166.66666667     270.00000000     372.67799625
  4 25 18  4 1 38  1     250.00000000      83.33333333     166.66666667     270.00000000     333.33333333
  4 25 18  4 1 39  1     250.00000000      83.33333333     166.66666667     270.00000000     372.67799625
  4 25 19  4 1 40  1     250.00000000      83.33333333     166.66666667     270.00000000     372.67799625
  4 25 19  4 1 41  1     250.00000000      83.33333333     166.66666667     270.00000000     333.33333333
  4 26 20  4 1 42  1     250.00000000      83.33333333     166.66666667     180.00000000     372.67799625
  4 25 19  4 1 42  1     250.00000000      83.33333333     166.66666667     270.00000000     372.67799625
  4 26 5  4 2 1  1     250.00000000      83.33333333     166.66666667       0.00000000     333.33333333
  4 26 20  4 2 42  1     250.00000000      83.33333333     166.66666667     180.00000000     333.33333333
  4 26 5  4 3 1  1     250.00000000      83.33333333     166.66666667       0.00000000     372.67799625
  4 26 20  4 3 42  1     250.00000000      83.33333333     166.66666667     180.00000000     372.67799625
  4 27 5  4 4 1  1     250.00000000      83.33333333     166.66666667       0.00000000     372.67799625
  4 27 20  4 4 42  1     250.00000000      83.33333333     166.66666667     180.00000000     372.67799625
  4 27 5  4 5 1  1     250.00000000      83.33333333     166.66666667       0.00000000     333.33333333
  4 27 20  4 5 42  1     250.00000000      83.33333333     166.66666667     180.00000000     333.33333333
  4 27 5  4 6 1  1     250.00000000      83.33333333     166.66666667       0.00000000     372.67799625
  4 27 20  4 6 42  1     250.00000000      83.33333333     166.66666667     180.00000000     372.67799625
  4 28 5  4 7 1  1     250.00000000      83.33333333     166.66666667       0.00000000     372.67799625
  4 28 20  4 7 42  1     250.00000000      83.33333333     166.66666667     180.00000000     372.67799625
  4 28 5  4 8 1  1     250.00000000      83.33333333     166.66666667       0.00000000     333.33333333
  4 28 20  4 8 42  1     250.00000000      83.33333333     166.66666667     180.00000000     333.33333333
  4 28 5  4 9 1  1     250.00000000      83.33333333     166.66666667       0.00000000     372.67799625
  4 28 20  4 9 42  1     250.00000000      83.33333333     166.66666667     180.00000000     372.67799625
  4 29 5  4 10 1  1     250.00000000      83.33333333     166.66666667       0.00000000     372.67799625
  4 29 20  4 10 42  1     250.00000000      83.33333333     166.66666667     180.00000000     372.67799625
  4 29 5  4 11 1  1     250.00000000      83.33333333     166.66666667       0.00000000     333.33333333
  4 29 20  4 11 42  1     250.00000000      83.33333333     166.66666667     180.00000000     333.33333333
  4 29 5  4 12 1  1     250.00000000      83.33333333     166.66666667       0.00000000     372.67799625
  4 29 20  4 12 42  1     250.00000000      83.33333333     166.66666667     180.00000000     372.67799625
  4 30 5  4 13 1  1     250.00000000      83.33333333     166.66666667       0.00000000     372.67799625