# PCG for MODFLOW, generated by Flopy.
100 50 1 0
0.000001 0.1 0.97 0 1 0 1.0 
