# sms8 input file, prepared by mf5to6 on 8/23/2016 at 10:22:04.

begin options
  print_option  summary
  complexity  simple
end options

begin nonlinear
  outer_maximum  10000
  outer_dvclose 1e-5
end nonlinear

begin linear
  inner_maximum 100
  inner_dvclose 1e-6
  inner_rclose 1e-6
end linear
