BEGIN options
  BOUNDNAMES
  GAMMAW    9806.65000000
  BETA      4.6512e-10
  COMPRESSION_INDICES
  UPDATE_MATERIAL_PROPERTIES
  EFFECTIVE_STRESS_LAG
  OBS6  FILEIN  csub_subwt02b.csub.obs
END options

BEGIN dimensions
  NINTERBEDS  840
  MAXSIG0  212
END dimensions

BEGIN griddata
  cg_ske_cr layered
    CONSTANT       0.00500000
    CONSTANT       0.00500000
    CONSTANT       0.01000000
    CONSTANT       0.00500000
  cg_theta layered
    CONSTANT       0.32000000
    CONSTANT       0.32000000
    CONSTANT       0.45054945
    CONSTANT       0.32000000
  sgm layered
    CONSTANT       1.77000000
    CONSTANT       1.77000000
    CONSTANT       1.60000000
    CONSTANT       1.77000000
  sgs layered
    CONSTANT       2.06000000
    CONSTANT       2.05000000
    CONSTANT       1.94000000
    CONSTANT       2.06000000
END griddata

BEGIN packagedata
  1  1 1 6  nodelay      15.00000000      45.00000000       1.00000000       0.25000000       0.01000000       0.45054945     999.00000000     999.00000000  01_01_06
  2  1 1 7  nodelay      15.00000000      45.00000000       1.00000000       0.25000000       0.01000000       0.45054945     999.00000000     999.00000000  01_01_07
  3  1 1 8  nodelay      15.00000000      45.00000000       1.00000000       0.25000000       0.01000000       0.45054945     999.00000000     999.00000000  01_01_08
  4  1 1 9  nodelay      15.00000000      45.00000000       1.00000000       0.25000000       0.01000000       0.45054945     999.00000000     999.00000000  01_01_09
  5  1 1 10  nodelay      15.00000000      45.00000000       1.00000000       0.25000000       0.01000000       0.45054945     999.00000000     999.00000000  01_01_10
  6  1 2 5  nodelay      15.00000000      45.00000000       1.00000000       0.25000000       0.01000000       0.45054945     999.00000000     999.00000000  01_02_05
  7  1 2 6  nodelay      15.00000000      45.00000000       1.00000000       0.25000000       0.01000000       0.45054945     999.00000000     999.00000000  01_02_06
  8  1 2 7  nodelay      15.00000000      45.00000000       1.00000000       0.25000000       0.01000000       0.45054945     999.00000000     999.00000000  01_02_07
  9  1 2 8  nodelay      15.00000000      45.00000000       1.00000000       0.25000000       0.01000000       0.45054945     999.00000000     999.00000000  01_02_08
  10  1 2 9  nodelay      15.00000000      45.00000000       1.00000000       0.25000000       0.01000000       0.45054945     999.00000000     999.00000000  01_02_09
  11  1 2 10  nodelay      15.00000000      45.00000000       1.00000000       0.25000000       0.01000000       0.45054945     999.00000000     999.00000000  01_02_10
  12  1 2 11  nodelay      15.00000000      45.00000000       1.00000000       0.25000000       0.01000000       0.45054945     999.00000000     999.00000000  01_02_11
  13  1 2 12  nodelay      15.00000000      45.00000000       1.00000000       0.25000000       0.01000000       0.45054945     999.00000000     999.00000000  01_02_12
  14  1 3 4  nodelay      15.00000000      45.00000000       1.00000000       0.25000000       0.01000000       0.45054945     999.00000000     999.00000000  01_03_04
  15  1 3 5  nodelay      15.00000000      45.00000000       1.00000000       0.25000000       0.01000000       0.45054945     999.00000000     999.00000000  01_03_05
  16  1 3 6  nodelay      15.00000000      45.00000000       1.00000000       0.25000000       0.01000000       0.45054945     999.00000000     999.00000000  01_03_06
  17  1 3 7  nodelay      15.00000000      45.00000000       1.00000000       0.25000000       0.01000000       0.45054945     999.00000000     999.00000000  01_03_07
  18  1 3 8  nodelay      15.00000000      45.00000000       1.00000000       0.25000000       0.01000000       0.45054945     999.00000000     999.00000000  01_03_08
  19  1 3 9  nodelay      15.00000000      45.00000000       1.00000000       0.25000000       0.01000000       0.45054945     999.00000000     999.00000000  01_03_09
  20  1 3 10  nodelay      15.00000000      45.00000000       1.00000000       0.25000000       0.01000000       0.45054945     999.00000000     999.00000000  01_03_10
  21  1 3 11  nodelay      15.00000000      45.00000000       1.00000000       0.25000000       0.01000000       0.45054945     999.00000000     999.00000000  01_03_11
  22  1 3 12  nodelay      15.00000000      45.00000000       1.00000000       0.25000000       0.01000000       0.45054945     999.00000000     999.00000000  01_03_12
  23  1 4 4  nodelay      15.00000000      45.00000000       1.00000000       0.25000000       0.01000000       0.45054945     999.00000000     999.00000000  01_04_04
  24  1 4 5  nodelay      15.00000000      45.00000000       1.00000000       0.25000000       0.01000000       0.45054945     999.00000000     999.00000000  01_04_05
  25  1 4 6  nodelay      15.00000000      45.00000000       1.00000000       0.25000000       0.01000000       0.45054945     999.00000000     999.00000000  01_04_06
  26  1 4 7  nodelay      15.00000000      45.00000000       1.00000000       0.25000000       0.01000000       0.45054945     999.00000000     999.00000000  01_04_07
  27  1 4 8  nodelay      15.00000000      45.00000000       1.00000000       0.25000000       0.01000000       0.45054945     999.00000000     999.00000000  01_04_08
  28  1 4 9  nodelay      15.00000000      45.00000000       1.00000000       0.25000000       0.01000000       0.45054945     999.00000000     999.00000000  01_04_09
  29  1 4 10  nodelay      15.00000000      45.00000000       1.00000000       0.25000000       0.01000000       0.45054945     999.00000000     999.00000000  01_04_10
  30  1 4 11  nodelay      15.00000000      45.00000000       1.00000000       0.25000000       0.01000000       0.45054945     999.00000000     999.00000000  01_04_11
  31  1 4 12  nodelay      15.00000000      45.00000000       1.00000000       0.25000000       0.01000000       0.45054945     999.00000000     999.00000000  01_04_12
  32  1 5 3  nodelay      15.00000000      45.00000000       1.00000000       0.25000000       0.01000000       0.45054945     999.00000000     999.00000000  01_05_03
  33  1 5 4  nodelay      15.00000000      45.00000000       1.00000000       0.25000000       0.01000000       0.45054945     999.00000000     999.00000000  01_05_04
  34  1 5 5  nodelay      15.00000000      45.00000000       1.00000000       0.25000000       0.01000000       0.45054945     999.00000000     999.00000000  01_05_05
  35  1 5 6  nodelay      15.00000000      45.00000000       1.00000000       0.25000000       0.01000000       0.45054945     999.00000000     999.00000000  01_05_06
  36  1 5 7  nodelay      15.00000000      45.00000000       1.00000000       0.25000000       0.01000000       0.45054945     999.00000000     999.00000000  01_05_07
  37  1 5 8  nodelay      15.00000000      45.00000000       1.00000000       0.25000000       0.01000000       0.45054945     999.00000000     999.00000000  01_05_08
  38  1 5 9  nodelay      15.00000000      45.00000000       1.00000000       0.25000000       0.01000000       0.45054945     999.00000000     999.00000000  01_05_09
  39  1 5 10  nodelay      15.00000000      45.00000000       1.00000000       0.25000000       0.01000000       0.45054945     999.00000000     999.00000000  01_05_10
  40  1 5 11  nodelay      15.00000000      45.00000000       1.00000000       0.25000000       0.01000000       0.45054945     999.00000000     999.00000000  01_05_11
  41  1 5 12  nodelay      15.00000000      45.00000000       1.00000000       0.25000000       0.01000000       0.45054945     999.00000000     999.00000000  01_05_12
  42  1 5 13  nodelay      15.00000000      45.00000000       1.00000000       0.25000000       0.01000000       0.45054945     999.00000000     999.00000000  01_05_13
  43  1 6 3  nodelay      15.00000000      45.00000000       1.00000000       0.25000000       0.01000000       0.45054945     999.00000000     999.00000000  01_06_03
  44  1 6 4  nodelay      15.00000000      45.00000000       1.00000000       0.25000000       0.01000000       0.45054945     999.00000000     999.00000000  01_06_04
  45  1 6 5  nodelay      15.00000000      45.00000000       1.00000000       0.25000000       0.01000000       0.45054945     999.00000000     999.00000000  01_06_05
  46  1 6 6  nodelay      15.00000000      45.00000000       1.00000000       0.25000000       0.01000000       0.45054945     999.00000000     999.00000000  01_06_06
  47  1 6 7  nodelay      15.00000000      45.00000000       1.00000000       0.25000000       0.01000000       0.45054945     999.00000000     999.00000000  01_06_07
  48  1 6 8  nodelay      15.00000000      45.00000000       1.00000000       0.25000000       0.01000000       0.45054945     999.00000000     999.00000000  01_06_08
  49  1 6 9  nodelay      15.00000000      45.00000000       1.00000000       0.25000000       0.01000000       0.45054945     999.00000000     999.00000000  01_06_09
  50  1 6 10  nodelay      15.00000000      45.00000000       1.00000000       0.25000000       0.01000000       0.45054945     999.00000000     999.00000000  01_06_10
  51  1 6 11  nodelay      15.00000000      45.00000000       1.00000000       0.25000000       0.01000000       0.45054945     999.00000000     999.00000000  01_06_11
  52  1 6 12  nodelay      15.00000000      45.00000000       1.00000000       0.25000000       0.01000000       0.45054945     999.00000000     999.00000000  01_06_12
  53  1 6 13  nodelay      15.00000000      45.00000000       1.00000000       0.25000000       0.01000000       0.45054945     999.00000000     999.00000000  01_06_13
  54  1 6 14  nodelay      15.00000000      45.00000000       1.00000000       0.25000000       0.01000000       0.45054945     999.00000000     999.00000000  01_06_14
  55  1 7 2  nodelay      15.00000000      45.00000000       1.00000000       0.25000000       0.01000000       0.45054945     999.00000000     999.00000000  01_07_02
  56  1 7 3  nodelay      15.00000000      45.00000000       1.00000000       0.25000000       0.01000000       0.45054945     999.00000000     999.00000000  01_07_03
  57  1 7 4  nodelay      15.00000000      45.00000000       1.00000000       0.25000000       0.01000000       0.45054945     999.00000000     999.00000000  01_07_04
  58  1 7 5  nodelay      15.00000000      45.00000000       1.00000000       0.25000000       0.01000000       0.45054945     999.00000000     999.00000000  01_07_05
  59  1 7 6  nodelay      15.00000000      45.00000000       1.00000000       0.25000000       0.01000000       0.45054945     999.00000000     999.00000000  01_07_06
  60  1 7 7  nodelay      15.00000000      45.00000000       1.00000000       0.25000000       0.01000000       0.45054945     999.00000000     999.00000000  01_07_07
  61  1 7 8  nodelay      15.00000000      45.00000000       1.00000000       0.25000000       0.01000000       0.45054945     999.00000000     999.00000000  01_07_08
  62  1 7 9  nodelay      15.00000000      45.00000000       1.00000000       0.25000000       0.01000000       0.45054945     999.00000000     999.00000000  01_07_09
  63  1 7 10  nodelay      15.00000000      45.00000000       1.00000000       0.25000000       0.01000000       0.45054945     999.00000000     999.00000000  01_07_10
  64  1 7 11  nodelay      15.00000000      45.00000000       1.00000000       0.25000000       0.01000000       0.45054945     999.00000000     999.00000000  01_07_11
  65  1 7 12  nodelay      15.00000000      45.00000000       1.00000000       0.25000000       0.01000000       0.45054945     999.00000000     999.00000000  01_07_12
  66  1 7 13  nodelay      15.00000000      45.00000000       1.00000000       0.25000000       0.01000000       0.45054945     999.00000000     999.00000000  01_07_13
  67  1 7 14  nodelay      15.00000000      45.00000000       1.00000000       0.25000000       0.01000000       0.45054945     999.00000000     999.00000000  01_07_14
  68  1 8 2  nodelay      15.00000000      45.00000000       1.00000000       0.25000000       0.01000000       0.45054945     999.00000000     999.00000000  01_08_02
  69  1 8 3  nodelay      15.00000000      45.00000000       1.00000000       0.25000000       0.01000000       0.45054945     999.00000000     999.00000000  01_08_03
  70  1 8 4  nodelay      15.00000000      45.00000000       1.00000000       0.25000000       0.01000000       0.45054945     999.00000000     999.00000000  01_08_04
  71  1 8 5  nodelay      15.00000000      45.00000000       1.00000000       0.25000000       0.01000000       0.45054945     999.00000000     999.00000000  01_08_05
  72  1 8 6  nodelay      15.00000000      45.00000000       1.00000000       0.25000000       0.01000000       0.45054945     999.00000000     999.00000000  01_08_06
  73  1 8 7  nodelay      15.00000000      45.00000000       1.00000000       0.25000000       0.01000000       0.45054945     999.00000000     999.00000000  01_08_07
  74  1 8 8  nodelay      15.00000000      45.00000000       1.00000000       0.25000000       0.01000000       0.45054945     999.00000000     999.00000000  01_08_08
  75  1 8 9  nodelay      15.00000000      45.00000000       1.00000000       0.25000000       0.01000000       0.45054945     999.00000000     999.00000000  01_08_09
  76  1 8 10  nodelay      15.00000000      45.00000000       1.00000000       0.25000000       0.01000000       0.45054945     999.00000000     999.00000000  01_08_10
  77  1 8 11  nodelay      15.00000000      45.00000000       1.00000000       0.25000000       0.01000000       0.45054945     999.00000000     999.00000000  01_08_11
  78  1 8 12  nodelay      15.00000000      45.00000000       1.00000000       0.25000000       0.01000000       0.45054945     999.00000000     999.00000000  01_08_12
  79  1 8 13  nodelay      15.00000000      45.00000000       1.00000000       0.25000000       0.01000000       0.45054945     999.00000000     999.00000000  01_08_13
  80  1 8 14  nodelay      15.00000000      45.00000000       1.00000000       0.25000000       0.01000000       0.45054945     999.00000000     999.00000000  01_08_14
  81  1 9 1  nodelay      15.00000000      45.00000000       1.00000000       0.25000000       0.01000000       0.45054945     999.00000000     999.00000000  01_09_01
  82  1 9 2  nodelay      15.00000000      45.00000000       1.00000000       0.25000000       0.01000000       0.45054945     999.00000000     999.00000000  01_09_02
  83  1 9 3  nodelay      15.00000000      45.00000000       1.00000000       0.25000000       0.01000000       0.45054945     999.00000000     999.00000000  01_09_03
  84  1 9 4  nodelay      15.00000000      45.00000000       1.00000000       0.25000000       0.01000000       0.45054945     999.00000000     999.00000000  01_09_04
  85  1 9 5  nodelay      15.00000000      45.00000000       1.00000000       0.25000000       0.01000000       0.45054945     999.00000000     999.00000000  01_09_05
  86  1 9 6  nodelay      15.00000000      45.00000000       1.00000000       0.25000000       0.01000000       0.45054945     999.00000000     999.00000000  01_09_06
  87  1 9 7  nodelay      15.00000000      45.00000000       1.00000000       0.25000000       0.01000000       0.45054945     999.00000000     999.00000000  01_09_07
  88  1 9 8  nodelay      15.00000000      45.00000000       1.00000000       0.25000000       0.01000000       0.45054945     999.00000000     999.00000000  01_09_08
  89  1 9 9  nodelay      15.00000000      45.00000000       1.00000000       0.25000000       0.01000000       0.45054945     999.00000000     999.00000000  01_09_09
  90  1 9 10  nodelay      15.00000000      45.00000000       1.00000000       0.25000000       0.01000000       0.45054945     999.00000000     999.00000000  01_09_10
  91  1 9 11  nodelay      15.00000000      45.00000000       1.00000000       0.25000000       0.01000000       0.45054945     999.00000000     999.00000000  01_09_11
  92  1 9 12  nodelay      15.00000000      45.00000000       1.00000000       0.25000000       0.01000000       0.45054945     999.00000000     999.00000000  01_09_12
  93  1 9 13  nodelay      15.00000000      45.00000000       1.00000000       0.25000000       0.01000000       0.45054945     999.00000000     999.00000000  01_09_13
  94  1 9 14  nodelay      15.00000000      45.00000000       1.00000000       0.25000000       0.01000000       0.45054945     999.00000000     999.00000000  01_09_14
  95  1 9 15  nodelay      15.00000000      45.00000000       1.00000000       0.25000000       0.01000000       0.45054945     999.00000000     999.00000000  01_09_15
  96  1 10 1  nodelay      15.00000000      45.00000000       1.00000000       0.25000000       0.01000000       0.45054945     999.00000000     999.00000000  01_10_01
  97  1 10 2  nodelay      15.00000000      45.00000000       1.00000000       0.25000000       0.01000000       0.45054945     999.00000000     999.00000000  01_10_02
  98  1 10 3  nodelay      15.00000000      45.00000000       1.00000000       0.25000000       0.01000000       0.45054945     999.00000000     999.00000000  01_10_03
  99  1 10 4  nodelay      15.00000000      45.00000000       1.00000000       0.25000000       0.01000000       0.45054945     999.00000000     999.00000000  01_10_04
  100  1 10 5  nodelay      15.00000000      45.00000000       1.00000000       0.25000000       0.01000000       0.45054945     999.00000000     999.00000000  01_10_05
  101  1 10 6  nodelay      15.00000000      45.00000000       1.00000000       0.25000000       0.01000000       0.45054945     999.00000000     999.00000000  01_10_06
  102  1 10 7  nodelay      15.00000000      45.00000000       1.00000000       0.25000000       0.01000000       0.45054945     999.00000000     999.00000000  01_10_07
  103  1 10 8  nodelay      15.00000000      45.00000000       1.00000000       0.25000000       0.01000000       0.45054945     999.00000000     999.00000000  01_10_08
  104  1 10 9  nodelay      15.00000000      45.00000000       1.00000000       0.25000000       0.01000000       0.45054945     999.00000000     999.00000000  01_10_09
  105  1 10 10  nodelay      15.00000000      45.00000000       1.00000000       0.25000000       0.01000000       0.45054945     999.00000000     999.00000000  01_10_10
  106  1 10 11  nodelay      15.00000000      45.00000000       1.00000000       0.25000000       0.01000000       0.45054945     999.00000000     999.00000000  01_10_11
  107  1 10 12  nodelay      15.00000000      45.00000000       1.00000000       0.25000000       0.01000000       0.45054945     999.00000000     999.00000000  01_10_12
  108  1 10 13  nodelay      15.00000000      45.00000000       1.00000000       0.25000000       0.01000000       0.45054945     999.00000000     999.00000000  01_10_13
  109  1 10 14  nodelay      15.00000000      45.00000000       1.00000000       0.25000000       0.01000000       0.45054945     999.00000000     999.00000000  01_10_14
  110  1 10 15  nodelay      15.00000000      45.00000000       1.00000000       0.25000000       0.01000000       0.45054945     999.00000000     999.00000000  01_10_15
  111  1 11 1  nodelay      15.00000000      45.00000000       1.00000000       0.25000000       0.01000000       0.45054945     999.00000000     999.00000000  01_11_01
  112  1 11 2  nodelay      15.00000000      45.00000000       1.00000000       0.25000000       0.01000000       0.45054945     999.00000000     999.00000000  01_11_02
  113  1 11 3  nodelay      15.00000000      45.00000000       1.00000000       0.25000000       0.01000000       0.45054945     999.00000000     999.00000000  01_11_03
  114  1 11 4  nodelay      15.00000000      45.00000000       1.00000000       0.25000000       0.01000000       0.45054945     999.00000000     999.00000000  01_11_04
  115  1 11 5  nodelay      15.00000000      45.00000000       1.00000000       0.25000000       0.01000000       0.45054945     999.00000000     999.00000000  01_11_05
  116  1 11 6  nodelay      15.00000000      45.00000000       1.00000000       0.25000000       0.01000000       0.45054945     999.00000000     999.00000000  01_11_06
  117  1 11 7  nodelay      15.00000000      45.00000000       1.00000000       0.25000000       0.01000000       0.45054945     999.00000000     999.00000000  01_11_07
  118  1 11 8  nodelay      15.00000000      45.00000000       1.00000000       0.25000000       0.01000000       0.45054945     999.00000000     999.00000000  01_11_08
  119  1 11 9  nodelay      15.00000000      45.00000000       1.00000000       0.25000000       0.01000000       0.45054945     999.00000000     999.00000000  01_11_09
  120  1 11 10  nodelay      15.00000000      45.00000000       1.00000000       0.25000000       0.01000000       0.45054945     999.00000000     999.00000000  01_11_10
  121  1 11 11  nodelay      15.00000000      45.00000000       1.00000000       0.25000000       0.01000000       0.45054945     999.00000000     999.00000000  01_11_11
  122  1 11 12  nodelay      15.00000000      45.00000000       1.00000000       0.25000000       0.01000000       0.45054945     999.00000000     999.00000000  01_11_12
  123  1 11 13  nodelay      15.00000000      45.00000000       1.00000000       0.25000000       0.01000000       0.45054945     999.00000000     999.00000000  01_11_13
  124  1 11 14  nodelay      15.00000000      45.00000000       1.00000000       0.25000000       0.01000000       0.45054945     999.00000000     999.00000000  01_11_14
  125  1 11 15  nodelay      15.00000000      45.00000000       1.00000000       0.25000000       0.01000000       0.45054945     999.00000000     999.00000000  01_11_15
  126  1 12 2  nodelay      15.00000000      45.00000000       1.00000000       0.25000000       0.01000000       0.45054945     999.00000000     999.00000000  01_12_02
  127  1 12 3  nodelay      15.00000000      45.00000000       1.00000000       0.25000000       0.01000000       0.45054945     999.00000000     999.00000000  01_12_03
  128  1 12 4  nodelay      15.00000000      45.00000000       1.00000000       0.25000000       0.01000000       0.45054945     999.00000000     999.00000000  01_12_04
  129  1 12 5  nodelay      15.00000000      45.00000000       1.00000000       0.25000000       0.01000000       0.45054945     999.00000000     999.00000000  01_12_05
  130  1 12 6  nodelay      15.00000000      45.00000000       1.00000000       0.25000000       0.01000000       0.45054945     999.00000000     999.00000000  01_12_06
  131  1 12 7  nodelay      15.00000000      45.00000000       1.00000000       0.25000000       0.01000000       0.45054945     999.00000000     999.00000000  01_12_07
  132  1 12 8  nodelay      15.00000000      45.00000000       1.00000000       0.25000000       0.01000000       0.45054945     999.00000000     999.00000000  01_12_08
  133  1 12 9  nodelay      15.00000000      45.00000000       1.00000000       0.25000000       0.01000000       0.45054945     999.00000000     999.00000000  01_12_09
  134  1 12 10  nodelay      15.00000000      45.00000000       1.00000000       0.25000000       0.01000000       0.45054945     999.00000000     999.00000000  01_12_10
  135  1 12 11  nodelay      15.00000000      45.00000000       1.00000000       0.25000000       0.01000000       0.45054945     999.00000000     999.00000000  01_12_11
  136  1 12 12  nodelay      15.00000000      45.00000000       1.00000000       0.25000000       0.01000000       0.45054945     999.00000000     999.00000000  01_12_12
  137  1 12 13  nodelay      15.00000000      45.00000000       1.00000000       0.25000000       0.01000000       0.45054945     999.00000000     999.00000000  01_12_13
  138  1 12 14  nodelay      15.00000000      45.00000000       1.00000000       0.25000000       0.01000000       0.45054945     999.00000000     999.00000000  01_12_14
  139  1 12 15  nodelay      15.00000000      45.00000000       1.00000000       0.25000000       0.01000000       0.45054945     999.00000000     999.00000000  01_12_15
  140  1 13 2  nodelay      15.00000000      45.00000000       1.00000000       0.25000000       0.01000000       0.45054945     999.00000000     999.00000000  01_13_02
  141  1 13 3  nodelay      15.00000000      45.00000000       1.00000000       0.25000000       0.01000000       0.45054945     999.00000000     999.00000000  01_13_03
  142  1 13 4  nodelay      15.00000000      45.00000000       1.00000000       0.25000000       0.01000000       0.45054945     999.00000000     999.00000000  01_13_04
  143  1 13 5  nodelay      15.00000000      45.00000000       1.00000000       0.25000000       0.01000000       0.45054945     999.00000000     999.00000000  01_13_05
  144  1 13 6  nodelay      15.00000000      45.00000000       1.00000000       0.25000000       0.01000000       0.45054945     999.00000000     999.00000000  01_13_06
  145  1 13 7  nodelay      15.00000000      45.00000000       1.00000000       0.25000000       0.01000000       0.45054945     999.00000000     999.00000000  01_13_07
  146  1 13 8  nodelay      15.00000000      45.00000000       1.00000000       0.25000000       0.01000000       0.45054945     999.00000000     999.00000000  01_13_08
  147  1 13 9  nodelay      15.00000000      45.00000000       1.00000000       0.25000000       0.01000000       0.45054945     999.00000000     999.00000000  01_13_09
  148  1 13 10  nodelay      15.00000000      45.00000000       1.00000000       0.25000000       0.01000000       0.45054945     999.00000000     999.00000000  01_13_10
  149  1 13 11  nodelay      15.00000000      45.00000000       1.00000000       0.25000000       0.01000000       0.45054945     999.00000000     999.00000000  01_13_11
  150  1 13 12  nodelay      15.00000000      45.00000000       1.00000000       0.25000000       0.01000000       0.45054945     999.00000000     999.00000000  01_13_12
  151  1 13 13  nodelay      15.00000000      45.00000000       1.00000000       0.25000000       0.01000000       0.45054945     999.00000000     999.00000000  01_13_13
  152  1 13 14  nodelay      15.00000000      45.00000000       1.00000000       0.25000000       0.01000000       0.45054945     999.00000000     999.00000000  01_13_14
  153  1 14 2  nodelay      15.00000000      45.00000000       1.00000000       0.25000000       0.01000000       0.45054945     999.00000000     999.00000000  01_14_02
  154  1 14 3  nodelay      15.00000000      45.00000000       1.00000000       0.25000000       0.01000000       0.45054945     999.00000000     999.00000000  01_14_03
  155  1 14 4  nodelay      15.00000000      45.00000000       1.00000000       0.25000000       0.01000000       0.45054945     999.00000000     999.00000000  01_14_04
  156  1 14 5  nodelay      15.00000000      45.00000000       1.00000000       0.25000000       0.01000000       0.45054945     999.00000000     999.00000000  01_14_05
  157  1 14 6  nodelay      15.00000000      45.00000000       1.00000000       0.25000000       0.01000000       0.45054945     999.00000000     999.00000000  01_14_06
  158  1 14 7  nodelay      15.00000000      45.00000000       1.00000000       0.25000000       0.01000000       0.45054945     999.00000000     999.00000000  01_14_07
  159  1 14 8  nodelay      15.00000000      45.00000000       1.00000000       0.25000000       0.01000000       0.45054945     999.00000000     999.00000000  01_14_08
  160  1 14 9  nodelay      15.00000000      45.00000000       1.00000000       0.25000000       0.01000000       0.45054945     999.00000000     999.00000000  01_14_09
  161  1 14 10  nodelay      15.00000000      45.00000000       1.00000000       0.25000000       0.01000000       0.45054945     999.00000000     999.00000000  01_14_10
  162  1 14 11  nodelay      15.00000000      45.00000000       1.00000000       0.25000000       0.01000000       0.45054945     999.00000000     999.00000000  01_14_11
  163  1 14 12  nodelay      15.00000000      45.00000000       1.00000000       0.25000000       0.01000000       0.45054945     999.00000000     999.00000000  01_14_12
  164  1 14 13  nodelay      15.00000000      45.00000000       1.00000000       0.25000000       0.01000000       0.45054945     999.00000000     999.00000000  01_14_13
  165  1 14 14  nodelay      15.00000000      45.00000000       1.00000000       0.25000000       0.01000000       0.45054945     999.00000000     999.00000000  01_14_14
  166  1 15 3  nodelay      15.00000000      45.00000000       1.00000000       0.25000000       0.01000000       0.45054945     999.00000000     999.00000000  01_15_03
  167  1 15 4  nodelay      15.00000000      45.00000000       1.00000000       0.25000000       0.01000000       0.45054945     999.00000000     999.00000000  01_15_04
  168  1 15 5  nodelay      15.00000000      45.00000000       1.00000000       0.25000000       0.01000000       0.45054945     999.00000000     999.00000000  01_15_05
  169  1 15 6  nodelay      15.00000000      45.00000000       1.00000000       0.25000000       0.01000000       0.45054945     999.00000000     999.00000000  01_15_06
  170  1 15 7  nodelay      15.00000000      45.00000000       1.00000000       0.25000000       0.01000000       0.45054945     999.00000000     999.00000000  01_15_07
  171  1 15 8  nodelay      15.00000000      45.00000000       1.00000000       0.25000000       0.01000000       0.45054945     999.00000000     999.00000000  01_15_08
  172  1 15 9  nodelay      15.00000000      45.00000000       1.00000000       0.25000000       0.01000000       0.45054945     999.00000000     999.00000000  01_15_09
  173  1 15 10  nodelay      15.00000000      45.00000000       1.00000000       0.25000000       0.01000000       0.45054945     999.00000000     999.00000000  01_15_10