BEGIN griddata
  strt
    CONSTANT     100.00000000
END griddata

