BEGIN options
  DIGITS  10
  PRINT_INPUT
END options

BEGIN continuous  FILEOUT  csub_obs.csv
  w1l1  interbed-compaction  01_09_10
  w1l2  interbed-compaction  02_09_10
  w1l3  interbed-compaction  03_09_10
  w1l4  interbed-compaction  04_09_10
  w2l1  interbed-compaction  01_12_07
  w2l2  interbed-compaction  02_12_07
  w2l3  interbed-compaction  03_12_07
  w2l4  interbed-compaction  04_12_07
  s1l1  coarse-compaction  1 9 10
  s1l2  coarse-compaction  2 9 10
  s1l3  coarse-compaction  3 9 10
  s1l4  coarse-compaction  4 9 10
  s2l1  coarse-compaction  1 12 7
  s2l2  coarse-compaction  2 12 7
  s2l3  coarse-compaction  3 12 7
  s2l4  coarse-compaction  4 12 7
  c1l1  compaction-cell  1 9 10
  c1l2  compaction-cell  2 9 10
  c1l3  compaction-cell  3 9 10
  c1l4  compaction-cell  4 9 10
  c2l1  compaction-cell  1 12 7
  c2l2  compaction-cell  2 12 7
  c2l3  compaction-cell  3 12 7
  c2l4  compaction-cell  4 12 7
  w2l4q  csub-cell  4 12 7
  gs1  gstress-cell  1 9 10
  es1  estress-cell  1 9 10
  pc1  preconstress-cell  1 9 10
  gs2  gstress-cell  2 9 10
  es2  estress-cell  2 9 10
  pc2  preconstress-cell  2 9 10
  gs3  gstress-cell  3 9 10
  es3  estress-cell  3 9 10
  pc3  preconstress-cell  3 9 10
  gs4  gstress-cell  4 9 10
  es4  estress-cell  4 9 10
  pc4  preconstress-cell  4 9 10
  sk1l2  ske-cell  2 9 10
  sk2l4  ske-cell  4 12 7
  t1l2  theta  02_09_10
  w1qie elastic-csub    02_09_10
  w1qii inelastic-csub  02_09_10
  w1qaq coarse-csub   2 9 10
  w1qt  csub-cell       2 9 10
  w1wc  wcomp-csub-cell 2 9 10
  w2qie elastic-csub    04_12_07
  w2qii inelastic-csub  04_12_07
  w2qaq coarse-csub   4 12 7
  w2qt  csub-cell       4 12 7
  w2wc  wcomp-csub-cell 4 12 7
END continuous  FILEOUT  csub_obs.csv

