BEGIN options
  TIME_UNITS  days
END options

BEGIN dimensions
  NPER  3
END dimensions

BEGIN perioddata
       0.00000000     1       1.00000000
   21915.00000000    60       1.00000000
   21915.00000000    60       1.00000000
END perioddata

# 2000 years to return to initial states
#  730500.00000000  2000       1.00000000

