BEGIN options
  PRINT_OPTION  summary
END options

BEGIN nonlinear
  OUTER_HCLOSE  1.00000000E-06
  OUTER_MAXIMUM  100
  UNDER_RELAXATION  none
END nonlinear

BEGIN linear
  INNER_MAXIMUM  300
  INNER_HCLOSE  1.00000000E-06
  inner_rclose       0.01000000
  LINEAR_ACCELERATION  bicgstab
  RELAXATION_FACTOR       0.97000000
  SCALING_METHOD  none
  REORDERING_METHOD  none
END linear

