BEGIN options
  SAVE_FLOWS
  NEWTON
END options

BEGIN packages
  DIS6  csub_subwt02b.dis  dis
  IC6  csub_subwt02b.ic  ic
  NPF6  csub_subwt02b.npf  npf
  OBS6  csub_subwt02b.gwf.obs gobs
  STO6  csub_subwt02b.sto  sto
  CHD6  csub_subwt02b.chd  chd_0
  WEL6  csub_subwt02b.wel  wel
  RCH6  csub_subwt02b.rch  rch_0
  CSUB6  csub_subwt02b.csub  csub
  OC6  csub_subwt02b.oc  oc
END packages

