BEGIN options
  DIGITS  10
  PRINT_INPUT
END options

BEGIN continuous  FILEOUT  gwf_obs.csv
  h1l1  head   1  9 10
  h1l2  head   2  9 10
  h1l3  head   3  9 10
  h1l4  head   4  9 10
  h2l1  head   1 12  7
  h2l2  head   2 12  7
  h2l3  head   3 12  7
  h2l4  head   4 12  7
END continuous

