BEGIN options
END options

BEGIN griddata
  icelltype  LAYERED
    CONSTANT  1
    CONSTANT  0
    CONSTANT  0
    CONSTANT  0
  k  LAYERED
    CONSTANT       4.00000000
    CONSTANT       4.00000000
    CONSTANT       0.01000000
    CONSTANT       4.00000000
  k33  LAYERED
    CONSTANT       0.40000000
    CONSTANT       0.40000000
    CONSTANT       0.01000000
    CONSTANT       0.40000000
END griddata

