BEGIN options
  PRINT_INPUT
  PRINT_FLOWS
END options

BEGIN dimensions
  MAXBOUND  2
END dimensions

BEGIN period  2
  2 9 10  -72000.00000000
  4 12 7  -72000.00000000
END period  2

BEGIN period  3
  2 9 10       0.00000000
  4 12 7       0.00000000
END period  3

