
BEGIN OPTIONS
  HEAD FILEOUT model3.hds
  BUDGET FILEOUT model3.cbc
END OPTIONS

BEGIN PERIOD 1
  PRINT HEAD ALL
  SAVE HEAD ALL
  PRINT BUDGET ALL
  SAVE BUDGET ALL
END PERIOD
