# CHD8 input file, prepared by mf5to15 on 4/10/2015 at 9:04:54.

BEGIN Options
  PRINT_FLOWS
END Options

BEGIN Dimensions
  MAXBOUND  1
END Dimensions

BEGIN Period 1
  1  1  5   10.0000000     
END Period

BEGIN Period 2
  1  1  5   -1.0000000     
END Period

BEGIN Period 3
  1  1  5   10.0000000     
END Period
