# NPF8 input file, prepared by mf5to15 on 4/10/2015 at 9:04:54.

BEGIN Options
  SAVE_FLOWS
  REWET WETFCT 1.0 IWETIT 1 IHDWET 0
END Options

BEGIN GRIDDATA
  ICELLTYPE LAYERED
    CONSTANT  1
  k  LAYERED
    CONSTANT   10.00000000    
  K33  LAYERED
    CONSTANT   10.00000000    
  WETDRY
    CONSTANT 0.01
END GRIDDATA
