# Well file for MODFLOW, generated by Flopy.
         1         0
         1         0 # stress period 0
         1         1         1 -10.000000
        -1         0 # stress period 1
        -1         0 # stress period 2
        -1         0 # stress period 3
        -1         0 # stress period 4
        -1         0 # stress period 5
        -1         0 # stress period 6
        -1         0 # stress period 7
        -1         0 # stress period 8
        -1         0 # stress period 9
