# DRN for MODFLOW, generated by Flopy.
         2         0
         2         0 # stress period 0
         1         1         1  0.000000  5.000000
         1         1       101  0.000000  5.000000
