# Discretization file for MODFLOW, generated by Flopy.
         1         1       100        10         4         2
  0
CONSTANT    1.000000E+00                           #delr                          
CONSTANT    1.000000E+00                           #delc                          
CONSTANT    1.000000E+01                           #model_top                     
CONSTANT    0.000000E+00                           #botm Layer 1                  
     10.000000            10  1.000000  TR 
     10.000000            10  1.000000  TR 
     10.000000            10  1.000000  TR 
     10.000000            10  1.000000  TR 
     10.000000            10  1.000000  TR 
     10.000000            10  1.000000  TR 
     10.000000            10  1.000000  TR 
     10.000000            10  1.000000  TR 
     10.000000            10  1.000000  TR 
     10.000000            10  1.000000  TR 
