# Output control package file for MODFLOW, generated by Flopy.
HEAD PRINT FORMAT   0
HEAD SAVE UNIT    51
DRAWDOWN PRINT FORMAT   0
DRAWDOWN SAVE UNIT    52
COMPACT BUDGET FILES
period 1 step 1 
save head
print budget
print head

period 1 step 2 
save head
print budget
print head

period 1 step 3 
save head
print budget
print head

period 1 step 4 
save head
print budget
print head

period 1 step 5 
save head
print budget
print head

period 1 step 6 
save head
print budget
print head

period 1 step 7 
save head
print budget
print head

period 1 step 8 
save head
print budget
print head

period 1 step 9 
save head
print budget
print head

period 1 step 10 
save head
print budget
print head

period 2 step 1 
save head
print budget
print head

period 2 step 2 
save head
print budget
print head

period 2 step 3 
save head
print budget
print head

period 2 step 4 
save head
print budget
print head

period 2 step 5 
save head
print budget
print head

period 2 step 6 
save head
print budget
print head

period 2 step 7 
save head
print budget
print head

period 2 step 8 
save head
print budget
print head

period 2 step 9 
save head
print budget
print head

period 2 step 10 
save head
print budget
print head

period 3 step 1 
save head
print budget
print head

period 3 step 2 
save head
print budget
print head

period 3 step 3 
save head
print budget
print head

period 3 step 4 
save head
print budget
print head

period 3 step 5 
save head
print budget
print head

period 3 step 6 
save head
print budget
print head

period 3 step 7 
save head
print budget
print head

period 3 step 8 
save head
print budget
print head

period 3 step 9 
save head
print budget
print head

period 3 step 10 
save head
print budget
print head

period 4 step 1 
save head
print budget
print head

period 4 step 2 
save head
print budget
print head

period 4 step 3 
save head
print budget
print head

period 4 step 4 
save head
print budget
print head

period 4 step 5 
save head
print budget
print head

period 4 step 6 
save head
print budget
print head

period 4 step 7 
save head
print budget
print head

period 4 step 8 
save head
print budget
print head

period 4 step 9 
save head
print budget
print head

period 4 step 10 
save head
print budget
print head

period 5 step 1 
save head
print budget
print head

period 5 step 2 
save head
print budget
print head

period 5 step 3 
save head
print budget
print head

period 5 step 4 
save head
print budget
print head

period 5 step 5 
save head
print budget
print head

period 5 step 6 
save head
print budget
print head

period 5 step 7 
save head
print budget
print head

period 5 step 8 
save head
print budget
print head

period 5 step 9 
save head
print budget
print head

period 5 step 10 
save head
print budget
print head

period 6 step 1 
save head
print budget
print head

period 6 step 2 
save head
print budget
print head

period 6 step 3 
save head
print budget
print head

period 6 step 4 
save head
print budget
print head

period 6 step 5 
save head
print budget
print head

period 6 step 6 
save head
print budget
print head

period 6 step 7 
save head
print budget
print head

period 6 step 8 
save head
print budget
print head

period 6 step 9 
save head
print budget
print head

period 6 step 10 
save head
print budget
print head

period 7 step 1 
save head
print budget
print head

period 7 step 2 
save head
print budget
print head

period 7 step 3 
save head
print budget
print head

period 7 step 4 
save head
print budget
print head

period 7 step 5 
save head
print budget
print head

period 7 step 6 
save head
print budget
print head

period 7 step 7 
save head
print budget
print head

period 7 step 8 
save head
print budget
print head

period 7 step 9 
save head
print budget
print head

period 7 step 10 
save head
print budget
print head

period 8 step 1 
save head
print budget
print head

period 8 step 2 
save head
print budget
print head

period 8 step 3 
save head
print budget
print head

period 8 step 4 
save head
print budget
print head

period 8 step 5 
save head
print budget
print head

period 8 step 6 
save head
print budget
print head

period 8 step 7 
save head
print budget
print head

period 8 step 8 
save head
print budget
print head

period 8 step 9 
save head
print budget
print head

period 8 step 10 
save head
print budget
print head

period 9 step 1 
save head
print budget
print head

period 9 step 2 
save head
print budget
print head

period 9 step 3 
save head
print budget
print head

period 9 step 4 
save head
print budget
print head

period 9 step 5 
save head
print budget
print head

period 9 step 6 
save head
print budget
print head

period 9 step 7 
save head
print budget
print head

period 9 step 8 
save head
print budget
print head

period 9 step 9 
save head
print budget
print head

period 9 step 10 
save head
print budget
print head

period 10 step 1 
save head
print budget
print head

period 10 step 2 
save head
print budget
print head

period 10 step 3 
save head
print budget
print head

period 10 step 4 
save head
print budget
print head

period 10 step 5 
save head
print budget
print head

period 10 step 6 
save head
print budget
print head

period 10 step 7 
save head
print budget
print head

period 10 step 8 
save head
print budget
print head

period 10 step 9 
save head
print budget
print head

period 10 step 10 
save head
print budget
print head

