# NWT for MODFLOW-NWT, generated by Flopy.
   1.0e-04   5.0e+02       500   1.0e-05         2         1         1 COMPLEX 
