# Basic package file for MODFLOW, generated by Flopy.
 FREE
INTERNAL               1  (100I10)  -1 #ibound Layer 1                
         1         1         1         1         1         1         1         1         1         1         1         1         1         1         1         1         1         1         1         1         1         1         1         1         1         1         1         1         1         1         1         1         1         1         1         1         1         1         1         1         1         1         1         1         1         1         1         1         1         1         1         1         1         1         1         1         1         1         1         1         1         1         1         1         1         1         1         1         1         1         1         1         1         1         1         1         1         1         1         1         1         1         1         1         1         1         1         1         1         1         1         1         1         1         1         1         1         1         1         1
        -999.99
CONSTANT    5.000000E+00                           #strt Layer 1                  
