# UPW for MODFLOW-NWT, generated by Flopy.
        53    -1E+30         0         0 
         1
         0
         1
         0
         0
CONSTANT    5.000000E+01                           #hk Layer 1                    
CONSTANT    5.000000E+01                           #vka Layer 1                   
CONSTANT    1.000000E-05                           #ss Layer 1                    
CONSTANT    1.000000E+00                           #sy Layer 1                    
