# MVR6 input file, prepared by MF5to6 on 7/29/2016 at 10:56:36.

BEGIN Options
  PRINT_INPUT
  PRINT_FLOWS
  BUDGET FILEOUT mvr.cbc
END Options

BEGIN Dimensions
  MAXMVR  114
  MAXPACKAGES  4
END Dimensions

BEGIN Packages
  SFR-1
  LAK-1
  UZF-1
  WEL-1
END Packages

BEGIN Period 1
  SFR-1  23  LAK-1  1  FACTOR  1.000000000000000
  LAK-1  1  SFR-1  24  FACTOR  1.000000000000000
  SFR-1  29  LAK-1  2  FACTOR  1.000000000000000
  LAK-1  2  SFR-1  30  FACTOR  1.000000000000000
  UZF-1  1  SFR-1  1  FACTOR  1.000000000000000
  UZF-1  2  SFR-1  2  FACTOR  1.000000000000000
  UZF-1  3  SFR-1  2  FACTOR  1.000000000000000
  UZF-1  4  SFR-1  2  FACTOR  1.000000000000000
  UZF-1  5  SFR-1  3  FACTOR  1.000000000000000
  UZF-1  6  SFR-1  11  FACTOR  1.000000000000000
  UZF-1  7  SFR-1  12  FACTOR  1.000000000000000
  UZF-1  8  SFR-1  12  FACTOR  1.000000000000000
  UZF-1  9  SFR-1  2  FACTOR  1.000000000000000
  UZF-1  10  SFR-1  3  FACTOR  1.000000000000000
  UZF-1  11  SFR-1  4  FACTOR  1.000000000000000
  UZF-1  12  SFR-1  10  FACTOR  1.000000000000000
  UZF-1  13  SFR-1  11  FACTOR  1.000000000000000
  UZF-1  14  SFR-1  12  FACTOR  1.000000000000000
  UZF-1  15  SFR-1  13  FACTOR  1.000000000000000
  UZF-1  16  LAK-1  2  FACTOR  1.000000000000000
  UZF-1  17  LAK-1  2  FACTOR  1.000000000000000
  UZF-1  18  SFR-1  3  FACTOR  1.000000000000000
  UZF-1  19  SFR-1  4  FACTOR  1.000000000000000
  UZF-1  20  SFR-1  5  FACTOR  1.000000000000000
  UZF-1  21  SFR-1  6  FACTOR  1.000000000000000
  UZF-1  22  SFR-1  6  FACTOR  1.000000000000000
  UZF-1  23  SFR-1  13  FACTOR  1.000000000000000
  UZF-1  24  SFR-1  17  FACTOR  1.000000000000000
  UZF-1  25  LAK-1  2  FACTOR  1.000000000000000
  UZF-1  26  LAK-1  2  FACTOR  1.000000000000000
  UZF-1  27  LAK-1  2  FACTOR  1.000000000000000
  UZF-1  28  LAK-1  2  FACTOR  1.000000000000000
  UZF-1  29  SFR-1  5  FACTOR  1.000000000000000
  UZF-1  30  SFR-1  6  FACTOR  1.000000000000000
  UZF-1  31  SFR-1  6  FACTOR  1.000000000000000
  UZF-1  32  SFR-1  14  FACTOR  1.000000000000000
  UZF-1  33  SFR-1  17  FACTOR  1.000000000000000
  UZF-1  34  SFR-1  16  FACTOR  1.000000000000000
  UZF-1  35  LAK-1  2  FACTOR  1.000000000000000
  UZF-1  36  LAK-1  2  FACTOR  1.000000000000000
  UZF-1  37  LAK-1  2  FACTOR  1.000000000000000
  UZF-1  38  LAK-1  2  FACTOR  1.000000000000000
  UZF-1  39  LAK-1  2  FACTOR  1.000000000000000
  UZF-1  40  SFR-1  7  FACTOR  1.000000000000000
  UZF-1  41  SFR-1  7  FACTOR  1.000000000000000
  UZF-1  42  SFR-1  19  FACTOR  1.000000000000000
  UZF-1  43  SFR-1  17  FACTOR  1.000000000000000
  UZF-1  44  SFR-1  16  FACTOR  1.000000000000000
  UZF-1  45  LAK-1  2  FACTOR  1.000000000000000
  UZF-1  46  LAK-1  2  FACTOR  1.000000000000000
  UZF-1  47  LAK-1  2  FACTOR  1.000000000000000
  UZF-1  48  LAK-1  2  FACTOR  1.000000000000000
  UZF-1  49  LAK-1  2  FACTOR  1.000000000000000
  UZF-1  50  SFR-1  8  FACTOR  1.000000000000000
  UZF-1  51  SFR-1  20  FACTOR  1.000000000000000
  UZF-1  52  SFR-1  20  FACTOR  1.000000000000000
  UZF-1  53  SFR-1  20  FACTOR  1.000000000000000
  UZF-1  54  LAK-1  2  FACTOR  1.000000000000000
  UZF-1  55  LAK-1  2  FACTOR  1.000000000000000
  UZF-1  56  LAK-1  2  FACTOR  1.000000000000000
  UZF-1  57  LAK-1  2  FACTOR  1.000000000000000
  UZF-1  58  SFR-1  9  FACTOR  1.000000000000000
  UZF-1  59  SFR-1  21  FACTOR  1.000000000000000
  UZF-1  60  SFR-1  21  FACTOR  1.000000000000000
  UZF-1  61  SFR-1  21  FACTOR  1.000000000000000
  UZF-1  62  LAK-1  2  FACTOR  1.000000000000000
  UZF-1  63  LAK-1  2  FACTOR  1.000000000000000
  UZF-1  64  LAK-1  2  FACTOR  1.000000000000000
  UZF-1  65  LAK-1  2  FACTOR  1.000000000000000
  UZF-1  66  SFR-1  23  FACTOR  1.000000000000000
  UZF-1  67  LAK-1  1  FACTOR  1.000000000000000
  UZF-1  68  LAK-1  1  FACTOR  1.000000000000000
  UZF-1  69  LAK-1  1  FACTOR  1.000000000000000
  UZF-1  70  LAK-1  2  FACTOR  1.000000000000000
  UZF-1  71  LAK-1  2  FACTOR  1.000000000000000
  UZF-1  72  LAK-1  2  FACTOR  1.000000000000000
  UZF-1  73  LAK-1  2  FACTOR  1.000000000000000
  UZF-1  74  LAK-1  1  FACTOR  1.000000000000000
  UZF-1  75  LAK-1  1  FACTOR  1.000000000000000
  UZF-1  76  LAK-1  1  FACTOR  1.000000000000000
  UZF-1  77  LAK-1  2  FACTOR  1.000000000000000
  UZF-1  78  SFR-1  9  FACTOR  1.000000000000000
  UZF-1  79  LAK-1  1  FACTOR  1.000000000000000
  UZF-1  80  SFR-1  31  FACTOR  1.000000000000000
  UZF-1  81  SFR-1  30  FACTOR  1.000000000000000
  UZF-1  82  SFR-1  9  FACTOR  1.000000000000000
  UZF-1  83  SFR-1  24  FACTOR  1.000000000000000
  UZF-1  84  LAK-1  1  FACTOR  1.000000000000000
  UZF-1  85  LAK-1  1  FACTOR  1.000000000000000
  UZF-1  86  SFR-1  31  FACTOR  1.000000000000000
  UZF-1  87  SFR-1  30  FACTOR  1.000000000000000
  UZF-1  88  SFR-1  29  FACTOR  1.000000000000000
  UZF-1  89  SFR-1  28  FACTOR  1.000000000000000
  UZF-1  90  SFR-1  27  FACTOR  1.000000000000000
  UZF-1  91  SFR-1  26  FACTOR  1.000000000000000
  UZF-1  92  SFR-1  30  FACTOR  1.000000000000000
  UZF-1  93  LAK-1  2  FACTOR  1.000000000000000
  UZF-1  94  SFR-1  28  FACTOR  1.000000000000000
  UZF-1  95  SFR-1  27  FACTOR  1.000000000000000
  UZF-1  96  SFR-1  26  FACTOR  1.000000000000000
  UZF-1  97  LAK-1  2  FACTOR  1.000000000000000
  UZF-1  98  LAK-1  2  FACTOR  1.000000000000000
  UZF-1  99  LAK-1  2  FACTOR  1.000000000000000
  UZF-1  100  LAK-1  2  FACTOR  1.000000000000000
  WEL-1  1   UZF-1 38  FACTOR 1.0
  WEL-1  2   UZF-1 39  FACTOR 1.0
  WEL-1  3   UZF-1 48  FACTOR 1.0
  WEL-1  4   UZF-1 49  FACTOR 1.0
  WEL-1  5   UZF-1 56  FACTOR 1.0
  WEL-1  6   UZF-1 57  FACTOR 1.0
  WEL-1  7   UZF-1 64  FACTOR 1.0
  WEL-1  8   UZF-1 65  FACTOR 1.0
  WEL-1  9   UZF-1 72  FACTOR 1.0
  WEL-1 10   UZF-1 73  FACTOR 1.0
END Period
