# LAK8 input file, prepared by MF5to6 on 7/29/2016 at 10:56:36.

BEGIN Options
  PRINT_INPUT
  PRINT_FLOWS
  SAVE_FLOWS
  MOVER
  length_conversion 3.28081 
  OBS6 FILEIN uzfp3_lakmvr_v2_lak.obs
END Options

BEGIN Dimensions
  NLAKES  2
  NOUTLETS  2
END Dimensions

BEGIN PACKAGEDATA
# lakeno    strt        nlakeconn
       1    1040.0000      12
       2    1010.0000      26
END PACKAGEDATA

BEGIN CONNECTIONDATA
# lakeno iconn cellid claktype bedleak belev telev connlen  connwidth
       1	1	1	9	7	HORIZONTAL	2.00E-09	0	0	2500	5000
       1	2	1	9	8	HORIZONTAL	2.00E-09	0	0	2500	5000
       1	3	1	10	6	HORIZONTAL	2.00E-09	0	0	2500	5000
       1	4	1	10	9	HORIZONTAL	2.00E-09	0	0	2500	5000
       1	5	1	11	6	HORIZONTAL	2.00E-09	0	0	2500	5000
       1	6	1	11	9	HORIZONTAL	2.00E-09	0	0	2500	5000
       1	7	1	12	7	HORIZONTAL	2.00E-09	0	0	2500	5000
       1	8	1	12	8	HORIZONTAL	2.00E-09	0	0	2500	5000
       1	9	2	10	7	VERTICAL	2.00E-09	0	0	0	0
       1	10	2	10	8	VERTICAL	2.00E-09	0	0	0	0
       1	11	2	11	7	VERTICAL	2.00E-09	0	0	0	0
       1	12	2	11	8	VERTICAL	2.00E-09	0	0	0	0
       2	1	1	10	3	HORIZONTAL	2.00E-09	0	0	2500	5000
       2	2	1	10	4	HORIZONTAL	2.00E-09	0	0	2500	5000
       2	3	1	10	5	HORIZONTAL	2.00E-09	0	0	2500	5000
       2	4	1	11	2	HORIZONTAL	2.00E-09	0	0	2500	5000
       2	5	1	11	6	HORIZONTAL	2.00E-09	0	0	2500	5000
       2	6	1	12	2	HORIZONTAL	2.00E-09	0	0	2500	5000
       2	7	1	12	6	HORIZONTAL	2.00E-09	0	0	2500	5000
       2	8	1	13	2	HORIZONTAL	2.00E-09	0	0	2500	5000
       2	9	1	13	6	HORIZONTAL	2.00E-09	0	0	2500	5000
       2	10	1	14	2	HORIZONTAL	2.00E-09	0	0	2500	5000
       2	11	1	14	6	HORIZONTAL	2.00E-09	0	0	2500	5000
       2	12	1	15	3	HORIZONTAL	2.00E-09	0	0	2500	5000
       2	13	1	15	4	HORIZONTAL	2.00E-09	0	0	2500	5000
       2	14	1	15	5	HORIZONTAL	2.00E-09	0	0	2500	5000
       2	15	2	11	3	VERTICAL	2.00E-09	0	0	0	0
       2	16	2	11	4	VERTICAL	2.00E-09	0	0	0	0
       2	17	2	11	5	VERTICAL	2.00E-09	0	0	0	0
       2	18	2	12	3	VERTICAL	2.00E-09	0	0	0	0
       2	19	2	12	4	VERTICAL	2.00E-09	0	0	0	0
       2	20	2	12	5	VERTICAL	2.00E-09	0	0	0	0
       2	21	2	13	3	VERTICAL	2.00E-09	0	0	0	0
       2	22	2	13	4	VERTICAL	2.00E-09	0	0	0	0
       2	23	2	13	5	VERTICAL	2.00E-09	0	0	0	0
       2	24	2	14	3	VERTICAL	2.00E-09	0	0	0	0
       2	25	2	14	4	VERTICAL	2.00E-09	0	0	0	0
       2	26	2	14	5	VERTICAL	2.00E-09	0	0	0	0
END CONNECTIONDATA

BEGIN OUTLETS
# outletno lakein lakeout couttype invert width rough slope
         1  1  0  MANNING    1040.0004        12.000000       0.29999999E-01   0.14285709E-02
         2  2  0  MANNING    1000.0000        60.000000       0.29999999E-01   0.12500000E-02
END OUTLETS

BEGIN PERIOD 1
  1  rainfall   0.50000000E-07
  1  evaporation   0.10000000E-07
  1  runoff    1.5000000
  1  withdrawal    0.0000000
  2  rainfall   0.12000000E-07
  2  evaporation   0.11000000E-07
  2  runoff    3.0000000
  2  withdrawal   0.12000000
END PERIOD
