# UZF8 input file, prepared by MF5to6 on 7/29/2016 at 10:56:36.

BEGIN Options
  BOUNDNAMES
  PRINT_INPUT
  #PRINT_FLOWS
  SAVE_FLOWS
  SIMULATE_ET
  LINEAR_GWET
  SIMULATE_GWSEEP
  MOVER
  OBS6 FILEIN uzfp3_lakmvr_v2_uzf.obs
  BUDGET FILEOUT uzf.cbc
END Options

BEGIN Dimensions
  NUZFCELLS  200
  NTRAILWAVES  10
  NWAVESETS  50
END Dimensions

BEGIN PACKAGEDATA
#  no  cellid   lflg vcon surfdep      vks  thtr  thts  thti  eps  boundaname
  	1  1  1   1    1  101     0.1 1.00E-06   0.1   0.3  0.11  3.5  uzfcells
  	2  1  1   2    1  102     0.1 1.00E-06   0.1   0.3  0.11  3.5  uzfcells
  	3  1  2   1    1  103     0.1 1.00E-06   0.2   0.3  0.21  3.5  uzfcells
  	4  1  2   2    1  104     0.1 1.00E-06   0.1   0.3  0.11  3.5  uzfcells
  	5  1  2   3    1  105     0.1 1.00E-06   0.1   0.3  0.11  3.5  uzfcells
  	6  1  2   6    1  106     0.1 1.00E-06   0.2   0.3  0.21  3.5  uzfcells
  	7  1  2   7    1  107     0.1 1.00E-06   0.2   0.3  0.21  3.5  uzfcells
  	8  1  2   8    1  108     0.1 1.00E-06   0.2   0.3  0.21  3.5  uzfcells
  	9  1  3   2    1  109     0.1 1.00E-06   0.2   0.3  0.21  3.5  uzfcells
   10  1  3   3    1  110     0.1 1.00E-06   0.1   0.3  0.11  3.5  uzfcells
   11  1  3   4    1  111     0.1 1.00E-06   0.1   0.3  0.11  3.5  uzfcells
   12  1  3   5    1  112     0.1 1.00E-06   0.2   0.3  0.21  3.5  uzfcells
   13  1  3   6    1  113     0.1 1.00E-06   0.2   0.3  0.21  3.5  uzfcells
   14  1  3   7    1  114     0.1 1.00E-06   0.2   0.3  0.21  3.5  uzfcells
   15  1  3   8    1  115     0.1 1.00E-06   0.2   0.3  0.21  3.5  uzfcells
   16  1  4   1    1  116     0.1 1.00E-06   0.2   0.3  0.21  3.5  uzfcells
   17  1  4   2    1  117     0.1 1.00E-06   0.2   0.3  0.21  3.5  uzfcells
   18  1  4   3    1  118     0.1 1.00E-06   0.2   0.3  0.21  3.5  uzfcells
   19  1  4   4    1  119     0.1 1.00E-06   0.1   0.3  0.11  3.5  uzfcells
   20  1  4   5    1  120     0.1 1.00E-06   0.1   0.3  0.11  3.5  uzfcells
   21  1  4   6    1  121     0.1 1.00E-06   0.1   0.3  0.11  3.5  uzfcells
   22  1  4   7    1  122     0.1 1.00E-06   0.2   0.3  0.21  3.5  uzfcells
   23  1  4   8    1  123     0.1 1.00E-06   0.2   0.3  0.21  3.5  uzfcells
   24  1  4   9    1  124     0.1 1.00E-06   0.2   0.3  0.21  3.5  uzfcells
   25  1  5   1    1  125     0.1 1.00E-06   0.2   0.3  0.21  3.5  uzfcells
   26  1  5   2    1  126     0.1 1.00E-06   0.2   0.3  0.21  3.5  uzfcells
   27  1  5   3    1  127     0.1 1.00E-06   0.2   0.3  0.21  3.5  uzfcells
   28  1  5   4    1  128     0.1 1.00E-06   0.1   0.3  0.11  3.5  uzfcells
   29  1  5   5    1  129     0.1 1.00E-06   0.1   0.3  0.11  3.5  uzfcells
   30  1  5   6    1  130     0.1 1.00E-06   0.1   0.3  0.11  3.5  uzfcells
   31  1  5   7    1  131     0.1 1.00E-06   0.1   0.3  0.11  3.5  uzfcells
   32  1  5   8    1  132     0.1 1.00E-06   0.1   0.3  0.11  3.5  uzfcells
   33  1  5   9    1  133     0.1 1.00E-06   0.1   0.3  0.11  3.5  uzfcells
   34  1  5  10    1  134     0.1 1.00E-06   0.1   0.3  0.11  3.5  uzfcells
   35  1  6   1    1  135     0.1 1.00E-06   0.2   0.3  0.21  3.5  uzfcells
   36  1  6   2    1  136     0.1 1.00E-06   0.2   0.3  0.21  3.5  uzfcells
   37  1  6   3    1  137     0.1 1.00E-06   0.2   0.3  0.21  3.5  uzfcells
   38  1  6   4    1  138     0.1 1.00E-06   0.1   0.3  0.11  3.5  ag
   39  1  6   5    1  139     0.1 1.00E-06   0.1   0.3  0.11  3.5  ag
   40  1  6   6    1  140     0.1 1.00E-06   0.1   0.3  0.11  3.5  uzfcells
   41  1  6   7    1  141     0.1 1.00E-06   0.1   0.3  0.11  3.5  uzfcells
   42  1  6   8    1  142     0.1 1.00E-06   0.1   0.3  0.11  3.5  uzfcells
   43  1  6   9    1  143     0.1 1.00E-06   0.2   0.3  0.21  3.5  uzfcells
   44  1  6  10    1  144     0.1 1.00E-06   0.2   0.3  0.21  3.5  uzfcells
   45  1  7   1    1  145     0.1 1.00E-06   0.2   0.3  0.21  3.5  uzfcells
   46  1  7   2    1  146     0.1 1.00E-06   0.2   0.3  0.21  3.5  uzfcells
   47  1  7   3    1  147     0.1 1.00E-06   0.2   0.3  0.21  3.5  uzfcells
   48  1  7   4    1  148     0.1 1.00E-06   0.1   0.3  0.11  3.5  ag
   49  1  7   5    1  149     0.1 1.00E-06   0.1   0.3  0.11  3.5  ag
   50  1  7   6    1  150     0.1 1.00E-06   0.1   0.3  0.11  3.5  uzfcells
   51  1  7   7    1  151     0.1 1.00E-06   0.1   0.3  0.11  3.5  uzfcells
   52  1  7   8    1  152     0.1 1.00E-06   0.1   0.3  0.11  3.5  uzfcells
   53  1  7   9    1  153     0.1 1.00E-06   0.2   0.3  0.21  3.5  uzfcells
   54  1  8   2    1  154     0.1 1.00E-06   0.2   0.3  0.21  3.5  uzfcells
   55  1  8   3    1  155     0.1 1.00E-06   0.2   0.3  0.21  3.5  uzfcells
   56  1  8   4    1  156     0.1 1.00E-06   0.1   0.3  0.11  3.5  ag
   57  1  8   5    1  157     0.1 1.00E-06   0.1   0.3  0.11  3.5  ag
   58  1  8   6    1  158     0.1 1.00E-06   0.1   0.3  0.11  3.5  uzfcells
   59  1  8   7    1  159     0.1 1.00E-06   0.1   0.3  0.11  3.5  uzfcells
   60  1  8   8    1  160     0.1 1.00E-06   0.2   0.3  0.21  3.5  uzfcells
   61  1  8   9    1  161     0.1 1.00E-06   0.2   0.3  0.21  3.5  uzfcells
   62  1  9   2    1  162     0.1 1.00E-06   0.2   0.3  0.21  3.5  uzfcells
   63  1  9   3    1  163     0.1 1.00E-06   0.2   0.3  0.21  3.5  uzfcells
   64  1  9   4    1  164     0.1 1.00E-06   0.1   0.3  0.11  3.5  ag
   65  1  9   5    1  165     0.1 1.00E-06   0.1   0.3  0.11  3.5  ag
   66  1  9   6    1  166     0.1 1.00E-06   0.1   0.3  0.11  3.5  uzfcells
   67  1  9   7    1  167     0.1 1.00E-06   0.1   0.3  0.11  3.5  uzfcells
   68  1  9   8    1  168     0.1 1.00E-06   0.2   0.3  0.21  3.5  uzfcells
   69  1  9   9    1  169     0.1 1.00E-06   0.2   0.3  0.21  3.5  uzfcells
   70  1 10   2    1  170     0.1 1.00E-06   0.2   0.3  0.21  3.5  uzfcells
   71  1 10   3    1  171     0.1 1.00E-06   0.2   0.3  0.21  3.5  uzfcells
   72  1 10   4    1  172     0.1 1.00E-06   0.1   0.3  0.11  3.5  ag
   73  1 10   5    1  173     0.1 1.00E-06   0.1   0.3  0.11  3.5  ag
   74  1 10   6    1  174     0.1 1.00E-06   0.1   0.3  0.11  3.5  uzfcells
   75  1 10   9    1  175     0.1 1.00E-06   0.2   0.3  0.21  3.5  uzfcells
   76  1 10  10    1  176     0.1 1.00E-06   0.2   0.3  0.21  3.5  uzfcells
   77  1 11   2    1  177     0.1 1.00E-06   0.2   0.3  0.21  3.5  uzfcells
   78  1 11   6    1  178     0.1 1.00E-06   0.1   0.3  0.11  3.5  uzfcells
   79  1 11   9    1  179     0.1 1.00E-06   0.2   0.3  0.21  3.5  uzfcells
   80  1 12   1    1  180     0.1 1.00E-06   0.2   0.3  0.21  3.5  uzfcells
   81  1 12   2    1  181     0.1 1.00E-06   0.2   0.3  0.21  3.5  uzfcells
   82  1 12   6    1  182     0.1 1.00E-06   0.1   0.3  0.11  3.5  uzfcells
   83  1 12   7    1  183     0.1 1.00E-06   0.1   0.3  0.11  3.5  uzfcells
   84  1 12   8    1  184     0.1 1.00E-06   0.2   0.3  0.21  3.5  uzfcells
   85  1 12   9    1  185     0.1 1.00E-06   0.2   0.3  0.21  3.5  uzfcells
   86  1 13   1    1  186     0.1 1.00E-06   0.1   0.3  0.11  3.5  uzfcells
   87  1 13   2    1  187     0.1 1.00E-06   0.1   0.3  0.11  3.5  uzfcells
   88  1 13   6    1  188     0.1 1.00E-06   0.1   0.3  0.11  3.5  uzfcells
   89  1 13   7    1  189     0.1 1.00E-06   0.1   0.3  0.11  3.5  uzfcells
   90  1 13   8    1  190     0.1 1.00E-06   0.1   0.3  0.11  3.5  uzfcells
   91  1 13   9    1  191     0.1 1.00E-06   0.1   0.3  0.11  3.5  uzfcells
   92  1 14   2    1  192     0.1 1.00E-06   0.2   0.3  0.21  3.5  uzfcells
   93  1 14   6    1  193     0.1 1.00E-06   0.2   0.3  0.21  3.5  uzfcells
   94  1 14   7    1  194     0.1 1.00E-06   0.2   0.3  0.21  3.5  uzfcells
   95  1 14   8    1  195     0.1 1.00E-06   0.2   0.3  0.21  3.5  uzfcells
   96  1 14   9    1  196     0.1 1.00E-06   0.1   0.3  0.11  3.5  uzfcells
   97  1 15   3    1  197     0.1 1.00E-06   0.2   0.3  0.21  3.5  uzfcells
   98  1 15   4    1  198     0.1 1.00E-06   0.2   0.3  0.21  3.5  uzfcells
   99  1 15   5    1  199     0.1 1.00E-06   0.2   0.3  0.21  3.5  uzfcells
  100  1 15   6    1  200     0.1 1.00E-06   0.2   0.3  0.21  3.5  uzfcells
  101  2  1   1    0    0     0.1 1.00E-06   0.1   0.3  0.11  3.5  uzfcells
  102  2  1   2    0    0     0.1 1.00E-06   0.1   0.3  0.11  3.5  uzfcells
  103  2  2   1    0    0     0.1 1.00E-06   0.2   0.3  0.21  3.5  uzfcells
  104  2  2   2    0    0     0.1 1.00E-06   0.1   0.3  0.11  3.5  uzfcells
  105  2  2   3    0    0     0.1 1.00E-06   0.1   0.3  0.11  3.5  uzfcells
  106  2  2   6    0    0     0.1 1.00E-06   0.2   0.3  0.21  3.5  uzfcells
  107  2  2   7    0    0     0.1 1.00E-06   0.2   0.3  0.21  3.5  uzfcells
  108  2  2   8    0    0     0.1 1.00E-06   0.2   0.3  0.21  3.5  uzfcells
  109  2  3   2    0    0     0.1 1.00E-06   0.2   0.3  0.21  3.5  uzfcells
  110  2  3   3    0    0     0.1 1.00E-06   0.1   0.3  0.11  3.5  uzfcells
  111  2  3   4    0    0     0.1 1.00E-06   0.1   0.3  0.11  3.5  uzfcells
  112  2  3   5    0    0     0.1 1.00E-06   0.2   0.3  0.21  3.5  uzfcells
  113  2  3   6    0    0     0.1 1.00E-06   0.2   0.3  0.21  3.5  uzfcells
  114  2  3   7    0    0     0.1 1.00E-06   0.2   0.3  0.21  3.5  uzfcells
  115  2  3   8    0    0     0.1 1.00E-06   0.2   0.3  0.21  3.5  uzfcells
  116  2  4   1    0    0     0.1 1.00E-06   0.2   0.3  0.21  3.5  uzfcells
  117  2  4   2    0    0     0.1 1.00E-06   0.2   0.3  0.21  3.5  uzfcells
  118  2  4   3    0    0     0.1 1.00E-06   0.2   0.3  0.21  3.5  uzfcells
  119  2  4   4    0    0     0.1 1.00E-06   0.1   0.3  0.11  3.5  uzfcells
  120  2  4   5    0    0     0.1 1.00E-06   0.1   0.3  0.11  3.5  uzfcells
  121  2  4   6    0    0     0.1 1.00E-06   0.1   0.3  0.11  3.5  uzfcells
  122  2  4   7    0    0     0.1 1.00E-06   0.2   0.3  0.21  3.5  uzfcells
  123  2  4   8    0    0     0.1 1.00E-06   0.2   0.3  0.21  3.5  uzfcells
  124  2  4   9    0    0     0.1 1.00E-06   0.2   0.3  0.21  3.5  uzfcells
  125  2  5   1    0    0     0.1 1.00E-06   0.2   0.3  0.21  3.5  uzfcells
  126  2  5   2    0    0     0.1 1.00E-06   0.2   0.3  0.21  3.5  uzfcells
  127  2  5   3    0    0     0.1 1.00E-06   0.2   0.3  0.21  3.5  uzfcells
  128  2  5   4    0    0     0.1 1.00E-06   0.1   0.3  0.11  3.5  uzfcells
  129  2  5   5    0    0     0.1 1.00E-06   0.1   0.3  0.11  3.5  uzfcells
  130  2  5   6    0    0     0.1 1.00E-06   0.1   0.3  0.11  3.5  uzfcells
  131  2  5   7    0    0     0.1 1.00E-06   0.1   0.3  0.11  3.5  uzfcells
  132  2  5   8    0    0     0.1 1.00E-06   0.1   0.3  0.11  3.5  uzfcells
  133  2  5   9    0    0     0.1 1.00E-06   0.1   0.3  0.11  3.5  uzfcells
  134  2  5  10    0    0     0.1 1.00E-06   0.1   0.3  0.11  3.5  uzfcells
  135  2  6   1    0    0     0.1 1.00E-06   0.2   0.3  0.21  3.5  uzfcells
  136  2  6   2    0    0     0.1 1.00E-06   0.2   0.3  0.21  3.5  uzfcells
  137  2  6   3    0    0     0.1 1.00E-06   0.2   0.3  0.21  3.5  uzfcells
  138  2  6   4    0    0     0.1 1.00E-06   0.1   0.3  0.11  3.5  ag
  139  2  6   5    0    0     0.1 1.00E-06   0.1   0.3  0.11  3.5  ag
  140  2  6   6    0    0     0.1 1.00E-06   0.1   0.3  0.11  3.5  uzfcells
  141  2  6   7    0    0     0.1 1.00E-06   0.1   0.3  0.11  3.5  uzfcells
  142  2  6   8    0    0     0.1 1.00E-06   0.1   0.3  0.11  3.5  uzfcells
  143  2  6   9    0    0     0.1 1.00E-06   0.2   0.3  0.21  3.5  uzfcells
  144  2  6  10    0    0     0.1 1.00E-06   0.2   0.3  0.21  3.5  uzfcells
  145  2  7   1    0    0     0.1 1.00E-06   0.2   0.3  0.21  3.5  uzfcells
  146  2  7   2    0    0     0.1 1.00E-06   0.2   0.3  0.21  3.5  uzfcells
  147  2  7   3    0    0     0.1 1.00E-06   0.2   0.3  0.21  3.5  uzfcells
  148  2  7   4    0    0     0.1 1.00E-06   0.1   0.3  0.11  3.5  ag
  149  2  7   5    0    0     0.1 1.00E-06   0.1   0.3  0.11  3.5  ag
  150  2  7   6    0    0     0.1 1.00E-06   0.1   0.3  0.11  3.5  uzfcells
  151  2  7   7    0    0     0.1 1.00E-06   0.1   0.3  0.11  3.5  uzfcells
  152  2  7   8    0    0     0.1 1.00E-06   0.1   0.3  0.11  3.5  uzfcells
  153  2  7   9    0    0     0.1 1.00E-06   0.2   0.3  0.21  3.5  uzfcells
  154  2  8   2    0    0     0.1 1.00E-06   0.2   0.3  0.21  3.5  uzfcells
  155  2  8   3    0    0     0.1 1.00E-06   0.2   0.3  0.21  3.5  uzfcells
  156  2  8   4    0    0     0.1 1.00E-06   0.1   0.3  0.11  3.5  ag
  157  2  8   5    0    0     0.1 1.00E-06   0.1   0.3  0.11  3.5  ag
  158  2  8   6    0    0     0.1 1.00E-06   0.1   0.3  0.11  3.5  uzfcells
  159  2  8   7    0    0     0.1 1.00E-06   0.1   0.3  0.11  3.5  uzfcells
  160  2  8   8    0    0     0.1 1.00E-06   0.2   0.3  0.21  3.5  uzfcells
  161  2  8   9    0    0     0.1 1.00E-06   0.2   0.3  0.21  3.5  uzfcells
  162  2  9   2    0    0     0.1 1.00E-06   0.2   0.3  0.21  3.5  uzfcells
  163  2  9   3    0    0     0.1 1.00E-06   0.2   0.3  0.21  3.5  uzfcells
  164  2  9   4    0    0     0.1 1.00E-06   0.1   0.3  0.11  3.5  ag
  165  2  9   5    0    0     0.1 1.00E-06   0.1   0.3  0.11  3.5  ag
  166  2  9   6    0    0     0.1 1.00E-06   0.1   0.3  0.11  3.5  uzfcells
  167  2  9   7    0    0     0.1 1.00E-06   0.1   0.3  0.11  3.5  uzfcells
  168  2  9   8    0    0     0.1 1.00E-06   0.2   0.3  0.21  3.5  uzfcells
  169  2  9   9    0    0     0.1 1.00E-06   0.2   0.3  0.21  3.5  uzfcells
  170  2 10   2    0    0     0.1 1.00E-06   0.2   0.3  0.21  3.5  uzfcells
  171  2 10   3    0    0     0.1 1.00E-06   0.2   0.3  0.21  3.5  uzfcells
  172  2 10   4    0    0     0.1 1.00E-06   0.1   0.3  0.11  3.5  ag
  173  2 10   5    0    0     0.1 1.00E-06   0.1   0.3  0.11  3.5  ag
  174  2 10   6    0    0     0.1 1.00E-06   0.1   0.3  0.11  3.5  uzfcells
  175  2 10   9    0    0     0.1 1.00E-06   0.2   0.3  0.21  3.5  uzfcells
  176  2 10  10    0    0     0.1 1.00E-06   0.2   0.3  0.21  3.5  uzfcells
  177  2 11   2    0    0     0.1 1.00E-06   0.2   0.3  0.21  3.5  uzfcells
  178  2 11   6    0    0     0.1 1.00E-06   0.1   0.3  0.11  3.5  uzfcells
  179  2 11   9    0    0     0.1 1.00E-06   0.2   0.3  0.21  3.5  uzfcells
  180  2 12   1    0    0     0.1 1.00E-06   0.2   0.3  0.21  3.5  uzfcells
  181  2 12   2    0    0     0.1 1.00E-06   0.2   0.3  0.21  3.5  uzfcells
  182  2 12   6    0    0     0.1 1.00E-06   0.1   0.3  0.11  3.5  uzfcells
  183  2 12   7    0    0     0.1 1.00E-06   0.1   0.3  0.11  3.5  uzfcells
  184  2 12   8    0    0     0.1 1.00E-06   0.2   0.3  0.21  3.5  uzfcells
  185  2 12   9    0    0     0.1 1.00E-06   0.2   0.3  0.21  3.5  uzfcells
  186  2 13   1    0    0     0.1 1.00E-06   0.1   0.3  0.11  3.5  uzfcells
  187  2 13   2    0    0     0.1 1.00E-06   0.1   0.3  0.11  3.5  uzfcells
  188  2 13   6    0    0     0.1 1.00E-06   0.1   0.3  0.11  3.5  uzfcells
  189  2 13   7    0    0     0.1 1.00E-06   0.1   0.3  0.11  3.5  uzfcells
  190  2 13   8    0    0     0.1 1.00E-06   0.1   0.3  0.11  3.5  uzfcells
  191  2 13   9    0    0     0.1 1.00E-06   0.1   0.3  0.11  3.5  uzfcells
  192  2 14   2    0    0     0.1 1.00E-06   0.2   0.3  0.21  3.5  uzfcells
  193  2 14   6    0    0     0.1 1.00E-06   0.2   0.3  0.21  3.5  uzfcells
  194  2 14   7    0    0     0.1 1.00E-06   0.2   0.3  0.21  3.5  uzfcells
  195  2 14   8    0    0     0.1 1.00E-06   0.2   0.3  0.21  3.5  uzfcells
  196  2 14   9    0    0     0.1 1.00E-06   0.1   0.3  0.11  3.5  uzfcells
  197  2 15   3    0    0     0.1 1.00E-06   0.2   0.3  0.21  3.5  uzfcells
  198  2 15   4    0    0     0.1 1.00E-06   0.2   0.3  0.21  3.5  uzfcells
  199  2 15   5    0    0     0.1 1.00E-06   0.2   0.3  0.21  3.5  uzfcells
  200  2 15   6    0    0     0.1 1.00E-06   0.2   0.3  0.21  3.5  uzfcells
END PACKAGEDATA

BEGIN PERIOD 1     
# uzfid finf pet extdp extwc ha hroot rootact
  1 3.34E-10 1.00E-08 15 0.100005 0.0 0.0 0.0
  2 6.68E-10 1.00E-08 15 0.100005 0.0 0.0 0.0
  3 6.68E-10 1.00E-08 15 0.20001 0.0 0.0 0.0
  4 3.34E-10 1.00E-08 15 0.100005 0.0 0.0 0.0
  5 6.68E-10 1.00E-08 15 0.100005 0.0 0.0 0.0
  6 2.68E-09 1.00E-08 15 0.20001 0.0 0.0 0.0
  7 2.68E-09 1.00E-08 15 0.20001 0.0 0.0 0.0
  8 1.67E-09 1.00E-08 15 0.20001 0.0 0.0 0.0
  9 1.67E-09 1.00E-08 15 0.20001 0.0 0.0 0.0
  10 3.34E-10 1.00E-08 15 0.100005 0.0 0.0 0.0
  11 3.34E-10 1.00E-08 15 0.100005 0.0 0.0 0.0
  12 2.68E-09 1.00E-08 15 0.20001 0.0 0.0 0.0
  13 2.68E-09 1.00E-08 15 0.20001 0.0 0.0 0.0
  14 1.67E-09 1.00E-08 15 0.20001 0.0 0.0 0.0
  15 1.67E-09 1.00E-08 15 0.20001 0.0 0.0 0.0
  16 2.68E-09 1.00E-08 15 0.20001 0.0 0.0 0.0
  17 1.67E-09 1.00E-08 15 0.20001 0.0 0.0 0.0
  18 3.34E-10 1.00E-08 15 0.20001 0.0 0.0 0.0
  19 3.34E-10 1.00E-08 15 0.100005 0.0 0.0 0.0
  20 3.34E-10 1.00E-08 15 0.100005 0.0 0.0 0.0
  21 3.34E-10 1.00E-08 15 0.100005 0.0 0.0 0.0
  22 3.34E-10 1.00E-08 15 0.20001 0.0 0.0 0.0
  23 3.34E-10 1.00E-08 15 0.20001 0.0 0.0 0.0
  24 6.68E-10 1.00E-08 15 0.20001 0.0 0.0 0.0
  25 2.68E-09 1.00E-08 15 0.20001 0.0 0.0 0.0
  26 1.67E-09 1.00E-08 15 0.20001 0.0 0.0 0.0
  27 3.34E-10 1.00E-08 15 0.20001 0.0 0.0 0.0
  28 3.34E-10 1.00E-08 15 0.100005 0.0 0.0 0.0
  29 3.34E-10 1.00E-08 15 0.100005 0.0 0.0 0.0
  30 3.34E-10 1.00E-08 15 0.100005 0.0 0.0 0.0
  31 3.34E-10 1.00E-08 15 0.100005 0.0 0.0 0.0
  32 3.34E-10 1.00E-08 15 0.100005 0.0 0.0 0.0
  33 3.34E-10 1.00E-08 15 0.100005 0.0 0.0 0.0
  34 3.34E-10 1.00E-08 15 0.100005 0.0 0.0 0.0
  35 2.68E-09 1.00E-08 15 0.20001 0.0 0.0 0.0
  36 1.67E-09 1.00E-08 15 0.20001 0.0 0.0 0.0
  37 1.67E-09 1.00E-08 15 0.20001 0.0 0.0 0.0
  38 6.68E-10 1.00E-08 15 0.100005 0.0 0.0 0.0
  39 6.68E-10 1.00E-08 15 0.100005 0.0 0.0 0.0
  40 3.34E-10 1.00E-08 15 0.100005 0.0 0.0 0.0
  41 3.34E-10 1.00E-08 15 0.100005 0.0 0.0 0.0
  42 3.34E-10 1.00E-08 15 0.100005 0.0 0.0 0.0
  43 3.34E-10 1.00E-08 15 0.20001 0.0 0.0 0.0
  44 1.67E-09 1.00E-08 15 0.20001 0.0 0.0 0.0
  45 2.68E-09 1.00E-08 15 0.20001 0.0 0.0 0.0
  46 1.67E-09 1.00E-08 15 0.20001 0.0 0.0 0.0
  47 1.67E-09 1.00E-08 15 0.20001 0.0 0.0 0.0
  48 6.68E-10 1.00E-08 15 0.100005 0.0 0.0 0.0
  49 6.68E-10 1.00E-08 15 0.100005 0.0 0.0 0.0
  50 3.34E-10 1.00E-08 15 0.100005 0.0 0.0 0.0
  51 3.34E-10 1.00E-08 15 0.100005 0.0 0.0 0.0
  52 6.68E-10 1.00E-08 15 0.100005 0.0 0.0 0.0
  53 6.68E-10 1.00E-08 15 0.20001 0.0 0.0 0.0
  54 1.67E-09 1.00E-08 15 0.20001 0.0 0.0 0.0
  55 1.67E-09 1.00E-08 15 0.20001 0.0 0.0 0.0
  56 6.68E-10 1.00E-08 15 0.100005 0.0 0.0 0.0
  57 6.68E-10 1.00E-08 15 0.100005 0.0 0.0 0.0
  58 3.34E-10 1.00E-08 15 0.100005 0.0 0.0 0.0
  59 3.34E-10 1.00E-08 15 0.100005 0.0 0.0 0.0
  60 6.68E-10 1.00E-08 15 0.20001 0.0 0.0 0.0
  61 1.67E-09 1.00E-08 15 0.20001 0.0 0.0 0.0
  62 1.67E-09 1.00E-08 15 0.20001 0.0 0.0 0.0
  63 1.67E-09 1.00E-08 15 0.20001 0.0 0.0 0.0
  64 6.68E-10 1.00E-08 15 0.100005 0.0 0.0 0.0
  65 6.68E-10 1.00E-08 15 0.100005 0.0 0.0 0.0
  66 3.34E-10 1.00E-08 15 0.100005 0.0 0.0 0.0
  67 3.34E-10 1.00E-08 15 0.100005 0.0 0.0 0.0
  68 6.68E-10 1.00E-08 15 0.20001 0.0 0.0 0.0
  69 1.67E-09 1.00E-08 15 0.20001 0.0 0.0 0.0
  70 1.67E-09 1.00E-08 15 0.20001 0.0 0.0 0.0
  71 1.67E-09 1.00E-08 15 0.20001 0.0 0.0 0.0
  72 6.68E-10 1.00E-08 15 0.100005 0.0 0.0 0.0
  73 6.68E-10 1.00E-08 15 0.100005 0.0 0.0 0.0
  74 3.34E-10 1.00E-08 15 0.100005 0.0 0.0 0.0
  75 1.67E-09 1.00E-08 15 0.20001 0.0 0.0 0.0
  76 2.68E-09 1.00E-08 15 0.20001 0.0 0.0 0.0
  77 3.34E-10 1.00E-08 15 0.20001 0.0 0.0 0.0
  78 3.34E-10 1.00E-08 15 0.100005 0.0 0.0 0.0
  79 1.67E-09 1.00E-08 15 0.20001 0.0 0.0 0.0
  80 3.34E-10 1.00E-08 15 0.20001 0.0 0.0 0.0
  81 3.34E-10 1.00E-08 15 0.20001 0.0 0.0 0.0
  82 3.34E-10 1.00E-08 15 0.100005 0.0 0.0 0.0
  83 3.34E-10 1.00E-08 15 0.100005 0.0 0.0 0.0
  84 3.34E-10 1.00E-08 15 0.20001 0.0 0.0 0.0
  85 6.68E-10 1.00E-08 15 0.20001 0.0 0.0 0.0
  86 3.34E-10 1.00E-08 15 0.100005 0.0 0.0 0.0
  87 3.34E-10 1.00E-08 15 0.100005 0.0 0.0 0.0
  88 6.68E-10 1.00E-08 15 0.100005 0.0 0.0 0.0
  89 6.68E-10 1.00E-08 15 0.100005 0.0 0.0 0.0
  90 3.34E-10 1.00E-08 15 0.100005 0.0 0.0 0.0
  91 3.34E-10 1.00E-08 15 0.100005 0.0 0.0 0.0
  92 6.68E-10 1.00E-08 15 0.20001 0.0 0.0 0.0
  93 1.67E-09 1.00E-08 15 0.20001 0.0 0.0 0.0
  94 1.67E-09 1.00E-08 15 0.20001 0.0 0.0 0.0
  95 6.68E-10 1.00E-08 15 0.20001 0.0 0.0 0.0
  96 3.34E-10 1.00E-08 15 0.100005 0.0 0.0 0.0
  97 2.68E-09 1.00E-08 15 0.20001 0.0 0.0 0.0
  98 2.68E-09 1.00E-08 15 0.20001 0.0 0.0 0.0
  99 2.68E-09 1.00E-08 15 0.20001 0.0 0.0 0.0
  100 2.68E-09 1.00E-08 15 0.20001 0.0 0.0 0.0
END PERIOD       
        
BEGIN PERIOD 2    
# uzfid finf pet extdp extwc ha hroot rootact
  1 4.00E-08 1.00E-08 15 0.100005 0.0 0.0 0.0
  2 8.00E-08 1.00E-08 15 0.100005 0.0 0.0 0.0
  3 8.00E-08 1.00E-08 15 0.20001 0.0 0.0 0.0
  4 4.00E-08 1.00E-08 15 0.100005 0.0 0.0 0.0
  5 8.00E-08 1.00E-08 15 0.100005 0.0 0.0 0.0
  6 3.20E-07 1.00E-08 15 0.20001 0.0 0.0 0.0
  7 3.20E-07 1.00E-08 15 0.20001 0.0 0.0 0.0
  8 2.00E-07 1.00E-08 15 0.20001 0.0 0.0 0.0
  9 2.00E-07 1.00E-08 15 0.20001 0.0 0.0 0.0
  10 4.00E-08 1.00E-08 15 0.100005 0.0 0.0 0.0
  11 4.00E-08 1.00E-08 15 0.100005 0.0 0.0 0.0
  12 3.20E-07 1.00E-08 15 0.20001 0.0 0.0 0.0
  13 3.20E-07 1.00E-08 15 0.20001 0.0 0.0 0.0
  14 2.00E-07 1.00E-08 15 0.20001 0.0 0.0 0.0
  15 2.00E-07 1.00E-08 15 0.20001 0.0 0.0 0.0
  16 3.20E-07 1.00E-08 15 0.20001 0.0 0.0 0.0
  17 2.00E-07 1.00E-08 15 0.20001 0.0 0.0 0.0
  18 4.00E-08 1.00E-08 15 0.20001 0.0 0.0 0.0
  19 4.00E-08 1.00E-08 15 0.100005 0.0 0.0 0.0
  20 4.00E-08 1.00E-08 15 0.100005 0.0 0.0 0.0
  21 4.00E-08 1.00E-08 15 0.100005 0.0 0.0 0.0
  22 4.00E-08 1.00E-08 15 0.20001 0.0 0.0 0.0
  23 4.00E-08 1.00E-08 15 0.20001 0.0 0.0 0.0
  24 8.00E-08 1.00E-08 15 0.20001 0.0 0.0 0.0
  25 3.20E-07 1.00E-08 15 0.20001 0.0 0.0 0.0
  26 2.00E-07 1.00E-08 15 0.20001 0.0 0.0 0.0
  27 4.00E-08 1.00E-08 15 0.20001 0.0 0.0 0.0
  28 4.00E-08 1.00E-08 15 0.100005 0.0 0.0 0.0
  29 4.00E-08 1.00E-08 15 0.100005 0.0 0.0 0.0
  30 4.00E-08 1.00E-08 15 0.100005 0.0 0.0 0.0
  31 4.00E-08 1.00E-08 15 0.100005 0.0 0.0 0.0
  32 4.00E-08 1.00E-08 15 0.100005 0.0 0.0 0.0
  33 4.00E-08 1.00E-08 15 0.100005 0.0 0.0 0.0
  34 4.00E-08 1.00E-08 15 0.100005 0.0 0.0 0.0
  35 3.20E-07 1.00E-08 15 0.20001 0.0 0.0 0.0
  36 2.00E-07 1.00E-08 15 0.20001 0.0 0.0 0.0
  37 2.00E-07 1.00E-08 15 0.20001 0.0 0.0 0.0
  38 8.00E-08 1.00E-08 15 0.100005 0.0 0.0 0.0
  39 8.00E-08 1.00E-08 15 0.100005 0.0 0.0 0.0
  40 4.00E-08 1.00E-08 15 0.100005 0.0 0.0 0.0
  41 4.00E-08 1.00E-08 15 0.100005 0.0 0.0 0.0
  42 4.00E-08 1.00E-08 15 0.100005 0.0 0.0 0.0
  43 4.00E-08 1.00E-08 15 0.20001 0.0 0.0 0.0
  44 2.00E-07 1.00E-08 15 0.20001 0.0 0.0 0.0
  45 3.20E-07 1.00E-08 15 0.20001 0.0 0.0 0.0
  46 2.00E-07 1.00E-08 15 0.20001 0.0 0.0 0.0
  47 2.00E-07 1.00E-08 15 0.20001 0.0 0.0 0.0
  48 8.00E-08 1.00E-08 15 0.100005 0.0 0.0 0.0
  49 8.00E-08 1.00E-08 15 0.100005 0.0 0.0 0.0
  50 4.00E-08 1.00E-08 15 0.100005 0.0 0.0 0.0
  51 4.00E-08 1.00E-08 15 0.100005 0.0 0.0 0.0
  52 8.00E-08 1.00E-08 15 0.100005 0.0 0.0 0.0
  53 8.00E-08 1.00E-08 15 0.20001 0.0 0.0 0.0
  54 2.00E-07 1.00E-08 15 0.20001 0.0 0.0 0.0
  55 2.00E-07 1.00E-08 15 0.20001 0.0 0.0 0.0
  56 8.00E-08 1.00E-08 15 0.100005 0.0 0.0 0.0
  57 8.00E-08 1.00E-08 15 0.100005 0.0 0.0 0.0
  58 4.00E-08 1.00E-08 15 0.100005 0.0 0.0 0.0
  59 4.00E-08 1.00E-08 15 0.100005 0.0 0.0 0.0
  60 8.00E-08 1.00E-08 15 0.20001 0.0 0.0 0.0
  61 2.00E-07 1.00E-08 15 0.20001 0.0 0.0 0.0
  62 2.00E-07 1.00E-08 15 0.20001 0.0 0.0 0.0
  63 2.00E-07 1.00E-08 15 0.20001 0.0 0.0 0.0
  64 8.00E-08 1.00E-08 15 0.100005 0.0 0.0 0.0
  65 8.00E-08 1.00E-08 15 0.100005 0.0 0.0 0.0
  66 4.00E-08 1.00E-08 15 0.100005 0.0 0.0 0.0
  67 4.00E-08 1.00E-08 15 0.100005 0.0 0.0 0.0
  68 8.00E-08 1.00E-08 15 0.20001 0.0 0.0 0.0
  69 2.00E-07 1.00E-08 15 0.20001 0.0 0.0 0.0
  70 2.00E-07 1.00E-08 15 0.20001 0.0 0.0 0.0
  71 2.00E-07 1.00E-08 15 0.20001 0.0 0.0 0.0
  72 8.00E-08 1.00E-08 15 0.100005 0.0 0.0 0.0
  73  8.00E-08  1.00E-08  15  0.100005  0.0  0.0  0.0
  74  4.00E-08  1.00E-08  15  0.100005  0.0  0.0  0.0
  75  2.00E-07  1.00E-08  15  0.20001  0.0  0.0  0.0
  76  3.20E-07  1.00E-08  15  0.20001  0.0  0.0  0.0
  77  4.00E-08  1.00E-08  15  0.20001  0.0  0.0  0.0
  78  4.00E-08  1.00E-08  15  0.100005  0.0  0.0  0.0
  79  2.00E-07  1.00E-08  15  0.20001  0.0  0.0  0.0
  80  4.00E-08  1.00E-08  15  0.20001  0.0  0.0  0.0
  81  4.00E-08  1.00E-08  15  0.20001  0.0  0.0  0.0
  82  4.00E-08  1.00E-08  15  0.100005  0.0  0.0  0.0
  83  4.00E-08  1.00E-08  15  0.100005  0.0  0.0  0.0
  84  4.00E-08  1.00E-08  15  0.20001  0.0  0.0  0.0
  85  8.00E-08  1.00E-08  15  0.20001  0.0  0.0  0.0
  86  4.00E-08  1.00E-08  15  0.100005  0.0  0.0  0.0
  87  4.00E-08  1.00E-08  15  0.100005  0.0  0.0  0.0
  88  8.00E-08  1.00E-08  15  0.100005  0.0  0.0  0.0
  89  8.00E-08  1.00E-08  15  0.100005  0.0  0.0  0.0
  90  4.00E-08  1.00E-08  15  0.100005  0.0  0.0  0.0
  91  4.00E-08  1.00E-08  15  0.100005  0.0  0.0  0.0
  92  8.00E-08  1.00E-08  15  0.20001  0.0  0.0  0.0
  93  2.00E-07  1.00E-08  15  0.20001  0.0  0.0  0.0
  94  2.00E-07  1.00E-08  15  0.20001  0.0  0.0  0.0
  95  8.00E-08  1.00E-08  15  0.20001  0.0  0.0  0.0
  96  4.00E-08  1.00E-08  15  0.100005  0.0  0.0  0.0
  97  3.20E-07  1.00E-08  15  0.20001  0.0  0.0  0.0
  98  3.20E-07  1.00E-08  15  0.20001  0.0  0.0  0.0
  99  3.20E-07  1.00E-08  15  0.20001  0.0  0.0  0.0
  100  3.20E-07  1.00E-08  15  0.20001  0.0  0.0  0.0
END  PERIOD              
                
BEGIN  PERIOD  3        
#  uzfid  finf  pet  extdp  extwc  ha  hroot  rootact
  1  1.00E-08  1.00E-08  15  0.100005  0.0  0.0  0.0
  2  2.00E-08  1.00E-08  15  0.100005  0.0  0.0  0.0
  3  2.00E-08  1.00E-08  15  0.20001  0.0  0.0  0.0
  4  1.00E-08  1.00E-08  15  0.100005  0.0  0.0  0.0
  5  2.00E-08  1.00E-08  15  0.100005  0.0  0.0  0.0
  6  8.00E-08  1.00E-08  15  0.20001  0.0  0.0  0.0
  7  8.00E-08  1.00E-08  15  0.20001  0.0  0.0  0.0
  8  5.00E-08  1.00E-08  15  0.20001  0.0  0.0  0.0
  9  5.00E-08  1.00E-08  15  0.20001  0.0  0.0  0.0
  10  1.00E-08  1.00E-08  15  0.100005  0.0  0.0  0.0
  11  1.00E-08  1.00E-08  15  0.100005  0.0  0.0  0.0
  12  8.00E-08  1.00E-08  15  0.20001  0.0  0.0  0.0
  13  8.00E-08  1.00E-08  15  0.20001  0.0  0.0  0.0
  14  5.00E-08  1.00E-08  15  0.20001  0.0  0.0  0.0
  15  5.00E-08  1.00E-08  15  0.20001  0.0  0.0  0.0
  16  8.00E-08  1.00E-08  15  0.20001  0.0  0.0  0.0
  17  5.00E-08  1.00E-08  15  0.20001  0.0  0.0  0.0
  18  1.00E-08  1.00E-08  15  0.20001  0.0  0.0  0.0
  19  1.00E-08  1.00E-08  15  0.100005  0.0  0.0  0.0
  20  1.00E-08  1.00E-08  15  0.100005  0.0  0.0  0.0
  21  1.00E-08  1.00E-08  15  0.100005  0.0  0.0  0.0
  22  1.00E-08  1.00E-08  15  0.20001  0.0  0.0  0.0
  23  1.00E-08  1.00E-08  15  0.20001  0.0  0.0  0.0
  24  2.00E-08  1.00E-08  15  0.20001  0.0  0.0  0.0
  25  8.00E-08  1.00E-08  15  0.20001  0.0  0.0  0.0
  26  5.00E-08  1.00E-08  15  0.20001  0.0  0.0  0.0
  27  1.00E-08  1.00E-08  15  0.20001  0.0  0.0  0.0
  28  1.00E-08  1.00E-08  15  0.100005  0.0  0.0  0.0
  29  1.00E-08  1.00E-08  15  0.100005  0.0  0.0  0.0
  30  1.00E-08  1.00E-08  15  0.100005  0.0  0.0  0.0
  31  1.00E-08  1.00E-08  15  0.100005  0.0  0.0  0.0
  32  1.00E-08  1.00E-08  15  0.100005  0.0  0.0  0.0
  33  1.00E-08  1.00E-08  15  0.100005  0.0  0.0  0.0
  34  1.00E-08  1.00E-08  15  0.100005  0.0  0.0  0.0
  35  8.00E-08  1.00E-08  15  0.20001  0.0  0.0  0.0
  36  5.00E-08  1.00E-08  15  0.20001  0.0  0.0  0.0
  37  5.00E-08  1.00E-08  15  0.20001  0.0  0.0  0.0
  38  2.00E-08  1.00E-08  15  0.100005  0.0  0.0  0.0
  39  2.00E-08  1.00E-08  15  0.100005  0.0  0.0  0.0
  40  1.00E-08  1.00E-08  15  0.100005  0.0  0.0  0.0
  41  1.00E-08  1.00E-08  15  0.100005  0.0  0.0  0.0
  42  1.00E-08  1.00E-08  15  0.100005  0.0  0.0  0.0
  43  1.00E-08  1.00E-08  15  0.20001  0.0  0.0  0.0
  44  5.00E-08  1.00E-08  15  0.20001  0.0  0.0  0.0
  45  8.00E-08  1.00E-08  15  0.20001  0.0  0.0  0.0
  46  5.00E-08  1.00E-08  15  0.20001  0.0  0.0  0.0
  47  5.00E-08  1.00E-08  15  0.20001  0.0  0.0  0.0
  48  2.00E-08  1.00E-08  15  0.100005  0.0  0.0  0.0
  49  2.00E-08  1.00E-08  15  0.100005  0.0  0.0  0.0
  50  1.00E-08  1.00E-08  15  0.100005  0.0  0.0  0.0
  51  1.00E-08  1.00E-08  15  0.100005  0.0  0.0  0.0
  52  2.00E-08  1.00E-08  15  0.100005  0.0  0.0  0.0
  53  2.00E-08  1.00E-08  15  0.20001  0.0  0.0  0.0
  54  5.00E-08  1.00E-08  15  0.20001  0.0  0.0  0.0
  55  5.00E-08  1.00E-08  15  0.20001  0.0  0.0  0.0
  56  2.00E-08  1.00E-08  15  0.100005  0.0  0.0  0.0
  57  2.00E-08  1.00E-08  15  0.100005  0.0  0.0  0.0
  58  1.00E-08  1.00E-08  15  0.100005  0.0  0.0  0.0
  59  1.00E-08  1.00E-08  15  0.100005  0.0  0.0  0.0
  60  2.00E-08  1.00E-08  15  0.20001  0.0  0.0  0.0
  61  5.00E-08  1.00E-08  15  0.20001  0.0  0.0  0.0
  62  5.00E-08  1.00E-08  15  0.20001  0.0  0.0  0.0
  63  5.00E-08  1.00E-08  15  0.20001  0.0  0.0  0.0
  64  2.00E-08  1.00E-08  15  0.100005  0.0  0.0  0.0
  65  2.00E-08  1.00E-08  15  0.100005  0.0  0.0  0.0
  66  1.00E-08  1.00E-08  15  0.100005  0.0  0.0  0.0
  67  1.00E-08  1.00E-08  15  0.100005  0.0  0.0  0.0
  68  2.00E-08  1.00E-08  15  0.20001  0.0  0.0  0.0
  69  5.00E-08  1.00E-08  15  0.20001  0.0  0.0  0.0
  70  5.00E-08  1.00E-08  15  0.20001  0.0  0.0  0.0
  71  5.00E-08  1.00E-08  15  0.20001  0.0  0.0  0.0
  72  2.00E-08  1.00E-08  15  0.100005  0.0  0.0  0.0
  73  2.00E-08  1.00E-08  15  0.100005  0.0  0.0  0.0
  74  1.00E-08  1.00E-08  15  0.100005  0.0  0.0  0.0
  75  5.00E-08  1.00E-08  15  0.20001  0.0  0.0  0.0
  76  8.00E-08  1.00E-08  15  0.20001  0.0  0.0  0.0
  77  1.00E-08  1.00E-08  15  0.20001  0.0  0.0  0.0
  78  1.00E-08  1.00E-08  15  0.100005  0.0  0.0  0.0
  79  5.00E-08  1.00E-08  15  0.20001  0.0  0.0  0.0
  80  1.00E-08  1.00E-08  15  0.20001  0.0  0.0  0.0
  81  1.00E-08  1.00E-08  15  0.20001  0.0  0.0  0.0
  82  1.00E-08  1.00E-08  15  0.100005  0.0  0.0  0.0
  83  1.00E-08  1.00E-08  15  0.100005  0.0  0.0  0.0
  84  1.00E-08  1.00E-08  15  0.20001  0.0  0.0  0.0
  85  2.00E-08  1.00E-08  15  0.20001  0.0  0.0  0.0
  86  1.00E-08  1.00E-08  15  0.100005  0.0  0.0  0.0
  87  1.00E-08  1.00E-08  15  0.100005  0.0  0.0  0.0
  88  2.00E-08  1.00E-08  15  0.100005  0.0  0.0  0.0