# SFR8 input file, prepared by MF5to6 on 7/29/2016 at 10:56:36.

BEGIN Options
  PRINT_FLOWS
  MAXIMUM_DEPTH_CHANGE   0.10000000E-05
  UNIT_CONVERSION    1.4860000    
  PRINT_STAGE
  PRINT_FLOWS
  SAVE_FLOWS
  MOVER
  BUDGET FILEOUT sfr.cbc
  boundnames
  OBS6 FILEIN sfr.obs
END Options

BEGIN Dimensions
  NREACHES  31
END Dimensions

BEGIN PACKAGEDATA
  # rno cellid rlen           rwid            rgrd            rbtp            rbth            rbhk             man       ncon  ustrf  ndv   boundnames
  1 1 1 1    4500.000        12.00000       0.8676790E-03    1093.048        3.000000       0.3000000E-05   0.3000000E-01  1  1.0000  0     allreaches 
  2 1 2 2    7000.000        12.00000       0.8676790E-03    1088.059        3.000000       0.3000000E-05   0.3000000E-01  2  1.0000  0     allreaches
  3 1 3 3    6000.000        12.00000       0.8676790E-03    1082.419        3.000000       0.3000000E-05   0.3000000E-01  2  1.0000  0     allreaches
  4 1 3 4    5550.000        12.00000       0.8676790E-03    1077.408        3.000000       0.3000000E-05   0.3000000E-01  3  1.0000  1     allreaches
  5 1 4 5    6500.000        12.00000       0.9433962E-03    1071.934        3.000000       0.3000000E-05   0.3000000E-01  2  1.0000  0     allreaches
  6 1 5 6    5000.000        12.00000       0.9433962E-03    1066.509        3.000000       0.3000000E-05   0.3000000E-01  2  1.0000  0     allreaches
  7 1 6 6    5000.000        12.00000       0.9433962E-03    1061.792        3.000000       0.3000000E-05   0.3000000E-01  2  1.0000  0     allreaches
  8 1 7 6    5000.000        12.00000       0.9433962E-03    1057.075        3.000000       0.3000000E-05   0.3000000E-01  2  1.0000  0     allreaches
  9 1 8 6    5000.000        12.00000       0.9433962E-03    1052.359        3.000000       0.3000000E-05   0.3000000E-01  2  1.0000  0     allreaches
  10 1 3 5    5000.000        9.636364       0.5454546E-03    1073.636        2.000000       0.3000000E-06   0.3000000E-01  2  0.0000  0    allreaches
  11 1 3 6    5000.000        8.909091       0.5454546E-03    1070.909        2.000000       0.3000000E-06   0.3000000E-01  2  1.0000  0    allreaches
  12 1 3 7    4500.000        8.218182       0.5454546E-03    1068.318        2.000000       0.3000000E-06   0.3000000E-01  2  1.0000  0    allreaches
  13 1 4 8    6000.000        7.454545       0.5454546E-03    1065.455        2.000000       0.3000000E-06   0.3000000E-01  2  1.0000  0    allreaches
  14 1 5 8    5000.000        6.654546       0.5454546E-03    1062.455        2.000000       0.3000000E-06   0.3000000E-01  2  1.0000  0    allreaches
  15 1 6 8    2000.000        6.145454       0.5454546E-03    1060.545        2.000000       0.3000000E-06   0.3000000E-01  2  1.0000  0    allreaches
  16 1 5 10    2500.000        10.00000       0.1818182E-02    1077.727        3.000000       0.3000000E-05   0.3000000E-01  1  1.0000  0   allreaches
  17 1 5 9    5000.000        10.00000       0.1818182E-02    1070.909        3.000000       0.3000000E-05   0.3000000E-01  2  1.0000  0    allreaches
  18 1 6 8    3500.000        10.00000       0.1818182E-02    1063.182        3.000000       0.3000000E-05   0.3000000E-01  2  1.0000  0    allreaches
  19 1 6 8    4000.000        10.00000       0.6666667E-03    1058.667        3.000000       0.3000000E-05   0.3000000E-01  3  1.0000  0    allreaches
  20 1 7 7    5000.000        10.00000       0.6666667E-03    1055.667        3.000000       0.3000000E-05   0.3000000E-01  2  1.0000  0    allreaches
  21 1 8 7    3500.000        10.00000       0.6666667E-03    1052.833        3.000000       0.3000000E-05   0.3000000E-01  2  1.0000  0    allreaches
  22 1 8 6    2500.000        10.00000       0.6666667E-03    1050.833        3.000000       0.3000000E-05   0.3000000E-01  2  1.0000  0    allreaches
  23 1 9 6    5000.000        12.00000       0.1800000E-02    1045.500        3.000000       0.3000000E-05   0.3000000E-01  2  1.0000  0    allreaches
  24 1 12 7    5000.000        12.00000       0.1428571E-02    1036.429        3.000000       0.3000000E-06   0.3000000E-01  1  1.0000  0   allreaches
  25 1 13 7    5500.000        12.00000       0.1428571E-02    1028.929        3.000000       0.3000000E-06   0.3000000E-01  2  1.0000  0   allreaches
  26 1 14 9    5000.000        60.00000       0.6666667E-03    1033.333        3.000000       0.6000000E-05   0.3000000E-01  1  1.0000  0   allreaches
  27 1 13 8    5000.000        60.00000       0.6666667E-03    1030.000        3.000000       0.6000000E-05   0.3000000E-01  2  1.0000  0   allreaches
  28 1 13 7    5000.000        60.00000       0.6666667E-03    1026.667        3.000000       0.6000000E-05   0.3000000E-01  2  1.0000  0   allreaches
  29 1 13 6    5000.000        60.00000       0.4800000E-02    1013.000        3.000000       0.6000000E-05   0.3000000E-01  2  1.0000  0   allreaches
  30 1 13 2    5000.000        60.00000       0.1250000E-02    996.8750        3.000000       0.6000000E-05   0.3000000E-01  1  1.0000  0   allreaches
  31 1 13 1    3000.000        60.00000       0.1250000E-02    991.8750        3.000000       0.6000000E-05   0.3000000E-01  1  1.0000  0   allreaches
END PACKAGEDATA

BEGIN CONNECTIONDATA
  1 -2
  2 1 -3
  3 2 -4
  4 3 -5 -10
  5 4 -6
  6 5 -7
  7 6 -8
  8 7 -9
  9 8 -23
  10 -11 4
  11 10 -12
  12 11 -13
  13 12 -14
  14 13 -15
  15 14 -19
  16 -17
  17 16 -18
  18 17 -19
  19 15 18 -20
  20 19 -21
  21 20 -22
  22 21 -23
  23 9 22
  24 -25
  25 24 -29
  26 -27
  27 26 -28
  28 27 -29
  29 25 28
  30 -31
  31 30
END CONNECTIONDATA

BEGIN DIVERSIONS
  # rno idv iconr iprior
      4   1    10 UPTO    0
END DIVERSIONS

BEGIN PERIOD 1
   1 inflow   25.000000
   1 rainfall   0.0000000
   1 evaporation   0.0000000
   1 runoff   0.0000000
   4 diversion 1   10.000000
   2 inflow   0.0000000
   2 rainfall   0.0000000
   2 evaporation   0.0000000
   2 runoff   0.0000000
   3 inflow   0.0000000
   3 rainfall   0.0000000
   3 evaporation   0.0000000
   3 runoff   0.0000000
   4 inflow   0.0000000
   4 rainfall   0.0000000
   4 evaporation   0.0000000
   4 runoff   0.0000000
   5 inflow   0.0000000
   5 rainfall   0.0000000
   5 evaporation   0.0000000
   5 runoff   0.0000000
   6 inflow   0.0000000
   6 rainfall   0.0000000
   6 evaporation   0.0000000
   6 runoff   0.0000000
   7 inflow   0.0000000
   7 rainfall   0.0000000
   7 evaporation   0.0000000
   7 runoff   0.0000000
   8 inflow   0.0000000
   8 rainfall   0.0000000
   8 evaporation   0.0000000
   8 runoff   0.0000000
   9 inflow   0.0000000
   9 rainfall   0.0000000
   9 evaporation   0.0000000
   9 runoff   0.0000000
   10 inflow   0.0000000
   10 rainfall   0.0000000
   10 evaporation   0.0000000
   10 runoff   0.0000000
   11 inflow   0.0000000
   11 rainfall   0.0000000
   11 evaporation   0.0000000
   11 runoff   0.0000000
   12 inflow   0.0000000
   12 rainfall   0.0000000
   12 evaporation   0.0000000
   12 runoff   0.0000000
   13 inflow   0.0000000
   13 rainfall   0.0000000
   13 evaporation   0.0000000
   13 runoff   0.0000000
   14 inflow   0.0000000
   14 rainfall   0.0000000
   14 evaporation   0.0000000
   14 runoff   0.0000000
   15 inflow   0.0000000
   15 rainfall   0.0000000
   15 evaporation   0.0000000
   15 runoff   0.0000000
   16 inflow   10.000000
   16 rainfall   0.0000000
   16 evaporation   0.0000000
   16 runoff   0.0000000
   17 inflow   0.0000000
   17 rainfall   0.0000000
   17 evaporation   0.0000000
   17 runoff   0.0000000
   18 inflow   0.0000000
   18 rainfall   0.0000000
   18 evaporation   0.0000000
   18 runoff   0.0000000
   19 inflow   0.0000000
   19 rainfall   0.0000000
   19 evaporation   0.0000000
   19 runoff   0.0000000
   20 inflow   0.0000000
   20 rainfall   0.0000000
   20 evaporation   0.0000000
   20 runoff   0.0000000
   21 inflow   0.0000000
   21 rainfall   0.0000000
   21 evaporation   0.0000000
   21 runoff   0.0000000
   22 inflow   0.0000000
   22 rainfall   0.0000000
   22 evaporation   0.0000000
   22 runoff   0.0000000
   23 inflow   0.0000000
   23 rainfall   0.0000000
   23 evaporation   0.0000000
   23 runoff   0.0000000
   24 inflow   0.0000000
   24 rainfall   0.0000000
   24 evaporation   0.0000000
   24 runoff   0.0000000
   25 inflow   0.0000000
   25 rainfall   0.0000000
   25 evaporation   0.0000000
   25 runoff   0.0000000
   26 inflow   150.00000
   26 rainfall   0.0000000
   26 evaporation   0.0000000
   26 runoff   0.0000000
   27 inflow   0.0000000
   27 rainfall   0.0000000
   27 evaporation   0.0000000
   27 runoff   0.0000000
   28 inflow   0.0000000
   28 rainfall   0.0000000
   28 evaporation   0.0000000
   28 runoff   0.0000000
   29 inflow   0.0000000
   29 rainfall   0.0000000
   29 evaporation   0.0000000
   29 runoff   0.0000000
   30 inflow   0.0000000
   30 rainfall   0.0000000
   30 evaporation   0.0000000
   30 runoff   0.0000000
   31 inflow   0.0000000
   31 rainfall   0.0000000
   31 evaporation   0.0000000
   31 runoff   0.0000000
END PERIOD
