BEGIN OPTIONS
digits 10
END OPTIONS

BEGIN CONTINUOUS FILEOUT  obs_lak.csv
LAK1_STAGE STAGE 1
LAK2_STAGE STAGE 2
LAK1_TO-MVR TO-MVR 1
LAK1_FROM-MVR FROM-MVR 1
LAK2_TO-MVR TO-MVR 2
LAK2_FROM-MVR FROM-MVR 2
END CONTINUOUS