# STO8 input file, prepared by MF5to6 on 7/29/2016 at 10:56:36.

BEGIN Options
  SAVE_FLOWS
END Options

BEGIN GRIDDATA
  ICONVERT LAYERED
    CONSTANT  1
    CONSTANT  1
  SS LAYERED
    CONSTANT   0.10000000E-05
    CONSTANT   0.10000000E-05
  SY LAYERED
    INTERNAL  FACTOR    1.000000      IPRN  12
  0.2000000      0.2000000       0.000000       0.000000       0.000000       0.000000       0.000000       0.000000       0.000000       0.000000    
  0.1000000      0.2000000      0.2000000       0.000000       0.000000      0.1000000      0.1000000      0.1000000       0.000000       0.000000    
   0.000000      0.1000000      0.2000000      0.2000000      0.1000000      0.1000000      0.1000000      0.1000000       0.000000       0.000000    
  0.1000000      0.1000000      0.1000000      0.2000000      0.2000000      0.2000000      0.1000000      0.1000000      0.1000000       0.000000    
  0.1000000      0.1000000      0.1000000      0.2000000      0.2000000      0.2000000      0.2000000      0.2000000      0.2000000      0.2000000    
  0.1000000      0.1000000      0.1000000      0.2000000      0.2000000      0.2000000      0.2000000      0.2000000      0.1000000      0.1000000    
  0.1000000      0.1000000      0.1000000      0.2000000      0.2000000      0.2000000      0.2000000      0.2000000      0.1000000       0.000000    
   0.000000      0.1000000      0.1000000      0.2000000      0.2000000      0.2000000      0.2000000      0.1000000      0.1000000       0.000000    
   0.000000      0.1000000      0.1000000      0.2000000      0.2000000      0.2000000      0.2000000      0.1000000      0.1000000       0.000000    
   0.000000      0.1000000      0.1000000      0.2000000      0.2000000      0.2000000      0.2000000      0.1000000      0.1000000      0.1000000    
   0.000000      0.1000000      0.1000000      0.2000000      0.2000000      0.2000000      0.2000000      0.1000000      0.1000000       0.000000    
  0.1000000      0.1000000      0.2000000      0.2000000      0.2000000      0.2000000      0.2000000      0.1000000      0.1000000       0.000000    
  0.2000000      0.2000000      0.2000000      0.2000000      0.2000000      0.2000000      0.2000000      0.2000000      0.2000000       0.000000    
   0.000000      0.1000000      0.1000000      0.1000000      0.1000000      0.1000000      0.1000000      0.1000000      0.2000000       0.000000    
   0.000000       0.000000      0.1000000      0.1000000      0.1000000      0.1000000       0.000000       0.000000       0.000000       0.000000    
    CONSTANT   0.20000000    
END GRIDDATA

BEGIN Period 1
    STEADY-STATE
END Period

BEGIN Period 2
    TRANSIENT
END Period
