# sms8 input file, prepared by mf5to6 on 3/14/2016 at 12:30:00.

begin options
  print_option  summary
  complexity  simple
end options

begin nonlinear
  outer_dvclose   0.1000000e-05
  outer_maximum  50
  under_relaxation  none
  under_relaxation_theta    0.000000    
  under_relaxation_kappa    0.000000    
  under_relaxation_gamma    0.000000    
  under_relaxation_momentum    0.000000    
end nonlinear

begin linear
  inner_maximum  500
  inner_dvclose   0.1000000e-06
  inner_rclose   0.1000000e-05
  linear_acceleration  bicgstab
  preconditioner_levels  7
  preconditioner_drop_tolerance   0.1000000e-02
  number_orthogonalizations  2
  reordering_method  none
end linear
