BEGIN OPTIONS
  DENSEREF 1000.
END OPTIONS

BEGIN DIMENSIONS
  NRHOSPECIES 1
END DIMENSIONS

BEGIN PACKAGEDATA
  #ISPEC DRHODC CRHOREF MODELNAME AUXSPECIESNAME
  1 0.7 0. GWT_ELDER CONCENTRATION
END PACKAGEDATA
