BEGIN options
  BUDGET  FILEOUT  gwf_elder.cbc
  HEAD  FILEOUT  gwf_elder.hds
  HEAD  PRINT_FORMAT  COLUMNS  10  WIDTH  15  DIGITS  6  GENERAL
END options

BEGIN period  1
  SAVE  HEAD  LAST
  SAVE  BUDGET  LAST
  PRINT  HEAD  ALL
  PRINT  BUDGET  LAST
END period  1

BEGIN period  2
  SAVE  HEAD  LAST
  SAVE  BUDGET  LAST
END period  2

BEGIN period  200
  SAVE  HEAD  LAST
  SAVE  BUDGET  LAST
  PRINT  HEAD  ALL
  PRINT  BUDGET  LAST
END period  200

