BEGIN options
  HHFORMULATION  LHS
  DENSEREF    1000.00000000
  DRHODC       0.70000000
END options

