BEGIN options
  SCHEME  central
END options

