begin options
  PRINT_INPUT
  PRINT_FLOWS
  SAVE_FLOWS
end options

begin dimensions
  MAXBOUND 200
end dimensions

begin period 1
#layer  1
 1 1 1    0.01    
 1 1 51  -0.01    
 1 2 1    0.01    
 1 2 51  -0.01    
 1 3 1    0.01    
 1 3 51  -0.01    
 1 4 1    0.01    
 1 4 51  -0.01    
 1 5 1    0.01    
 1 5 51  -0.01    
 1 6 1    0.01    
 1 6 51  -0.01    
 1 7 1    0.01    
 1 7 51  -0.01    
 1 8 1    0.01    
 1 8 51  -0.01    
 1 9 1    0.01    
 1 9 51  -0.01    
 1 10 1    0.01    
 1 10 51  -0.01    
#layer  2
 2 1 1    0.01    
 2 1 51  -0.01    
 2 2 1    0.01    
 2 2 51  -0.01    
 2 3 1    0.01    
 2 3 51  -0.01    
 2 4 1    0.01    
 2 4 51  -0.01    
 2 5 1    0.01    
 2 5 51  -0.01    
 2 6 1    0.01    
 2 6 51  -0.01    
 2 7 1    0.01    
 2 7 51  -0.01    
 2 8 1    0.01    
 2 8 51  -0.01    
 2 9 1    0.01    
 2 9 51  -0.01    
 2 10 1    0.01    
 2 10 51  -0.01    
#layer  3
 3 1 1    0.01    
 3 1 51  -0.01    
 3 2 1    0.01    
 3 2 51  -0.01    
 3 3 1    0.01    
 3 3 51  -0.01    
 3 4 1    0.01    
 3 4 51  -0.01    
 3 5 1    0.01    
 3 5 51  -0.01    
 3 6 1    0.01    
 3 6 51  -0.01    
 3 7 1    0.01    
 3 7 51  -0.01    
 3 8 1    0.01    
 3 8 51  -0.01    
 3 9 1    0.01    
 3 9 51  -0.01    
 3 10 1    0.01    
 3 10 51  -0.01    
#layer  4
 4 1 1    0.01    
 4 1 51  -0.01    
 4 2 1    0.01    
 4 2 51  -0.01    
 4 3 1    0.01    
 4 3 51  -0.01    
 4 4 1    0.01    
 4 4 51  -0.01    
 4 5 1    0.01    
 4 5 51  -0.01    
 4 6 1    0.01    
 4 6 51  -0.01    
 4 7 1    0.01    
 4 7 51  -0.01    
 4 8 1    0.01    
 4 8 51  -0.01    
 4 9 1    0.01    
 4 9 51  -0.01    
 4 10 1    0.01    
 4 10 51  -0.01    
#layer  5
 5 1 1    0.01    
 5 1 51  -0.01    
 5 2 1    0.01    
 5 2 51  -0.01    
 5 3 1    0.01    
 5 3 51  -0.01    
 5 4 1    0.01    
 5 4 51  -0.01    
 5 5 1    0.01    
 5 5 51  -0.01    
 5 6 1    0.01    
 5 6 51  -0.01    
 5 7 1    0.01    
 5 7 51  -0.01    
 5 8 1    0.01    
 5 8 51  -0.01    
 5 9 1    0.01    
 5 9 51  -0.01    
 5 10 1    0.01    
 5 10 51  -0.01    
#layer  6
 6 1 1    0.01    
 6 1 51  -0.01    
 6 2 1    0.01    
 6 2 51  -0.01    
 6 3 1    0.01    
 6 3 51  -0.01    
 6 4 1    0.01    
 6 4 51  -0.01    
 6 5 1    0.01    
 6 5 51  -0.01    
 6 6 1    0.01    
 6 6 51  -0.01    
 6 7 1    0.01    
 6 7 51  -0.01    
 6 8 1    0.01    
 6 8 51  -0.01    
 6 9 1    0.01    
 6 9 51  -0.01    
 6 10 1    0.01    
 6 10 51  -0.01    
#layer  7
 7 1 1    0.01    
 7 1 51  -0.01    
 7 2 1    0.01    
 7 2 51  -0.01    
 7 3 1    0.01    
 7 3 51  -0.01    
 7 4 1    0.01    
 7 4 51  -0.01    
 7 5 1    0.01    
 7 5 51  -0.01    
 7 6 1    0.01    
 7 6 51  -0.01    
 7 7 1    0.01    
 7 7 51  -0.01    
 7 8 1    0.01    
 7 8 51  -0.01    
 7 9 1    0.01    
 7 9 51  -0.01    
 7 10 1    0.01    
 7 10 51  -0.01    
#layer  8
 8 1 1    0.01    
 8 1 51  -0.01    
 8 2 1    0.01    
 8 2 51  -0.01    
 8 3 1    0.01    
 8 3 51  -0.01    
 8 4 1    0.01    
 8 4 51  -0.01    
 8 5 1    0.01    
 8 5 51  -0.01    
 8 6 1    0.01    
 8 6 51  -0.01    
 8 7 1    0.01    
 8 7 51  -0.01    
 8 8 1    0.01    
 8 8 51  -0.01    
 8 9 1    0.01    
 8 9 51  -0.01    
 8 10 1    0.01    
 8 10 51  -0.01    
#layer  9
 9 1 1    0.01    
 9 1 51  -0.01    
 9 2 1    0.01    
 9 2 51  -0.01    
 9 3 1    0.01    
 9 3 51  -0.01    
 9 4 1    0.01    
 9 4 51  -0.01    
 9 5 1    0.01    
 9 5 51  -0.01    
 9 6 1    0.01    
 9 6 51  -0.01    
 9 7 1    0.01    
 9 7 51  -0.01    
 9 8 1    0.01    
 9 8 51  -0.01    
 9 9 1    0.01    
 9 9 51  -0.01    
 9 10 1    0.01    
 9 10 51  -0.01    
#layer 10
 10 1 1    0.01    
 10 1 51  -0.01    
 10 2 1    0.01    
 10 2 51  -0.01    
 10 3 1    0.01    
 10 3 51  -0.01    
 10 4 1    0.01    
 10 4 51  -0.01    
 10 5 1    0.01    
 10 5 51  -0.01    
 10 6 1    0.01    
 10 6 51  -0.01    
 10 7 1    0.01    
 10 7 51  -0.01    
 10 8 1    0.01    
 10 8 51  -0.01    
 10 9 1    0.01    
 10 9 51  -0.01    
 10 10 1    0.01    
 10 10 51  -0.01    
end period
