# RCH for MODFLOW, generated by Flopy.
         1         0
         1         1 #Recharge array for stress period 1
INTERNAL               1  (free)  -1 #rech_1                        
   0.000000E+00   0.000000E+00   4.752000E-01
   