# SMS for MODFLOW-USG, generated by Flopy.
1e-6 1e-6 2000 100 2 1 1
0.7 0.0001 0.0 0.0 20 2 0.6 0.0005
2 0 8 2 0 0.0001 0 0.001
