# LPF for MODFLOW, generated by Flopy.
        53    -2E+03         0         0 CONSTANTCV
         4 4 4 4 4 4 4 4 4 4 4
         0 0 0 0 0 0 0 0 0 0 0
         1 1 1 1 1 1 1 1 1 1 1
         0 0 0 0 0 0 0 0 0 0 0
         0 0 0 0 0 0 0 0 0 0 0
CONSTANT 8.475839E-01                 #hk  Layer 1 
CONSTANT 8.475839E-01                 #vka Layer 1 
CONSTANT 8.475839E-01                 #hk  Layer 2 
CONSTANT 8.475839E-01                 #vka Layer 2 
CONSTANT 8.475839E-01                 #hk  Layer 3 
CONSTANT 8.475839E-01                 #vka Layer 3 
CONSTANT 8.475839E-01                 #hk  Layer 4 
CONSTANT 8.475839E-01                 #vka Layer 4 
INTERNAL               1  (free)   0  #hk  Layer 5                    
       8.475839E-01   8.475840E-07
INTERNAL               1  (free)   0  #vka Layer 5                    
       8.475839E-01   8.475840E-07
CONSTANT 8.475839E-01                 #hk  Layer 6 
CONSTANT 8.475839E-01                 #vka Layer 6 
CONSTANT 8.475839E-01                 #hk  Layer 7 
CONSTANT 8.475839E-01                 #vka Layer 7 
CONSTANT 8.475839E-01                 #hk  Layer 8 
CONSTANT 8.475839E-01                 #vka Layer 8 
CONSTANT 8.475839E-01                 #hk  Layer 9 
CONSTANT 8.475839E-01                 #vka Layer 9 
CONSTANT 8.475839E-01                 #hk  Layer 10 
CONSTANT 8.475839E-01                 #vka Layer 10
