BEGIN OPTIONS
  SAVE_FLOWS
  REWET WETFCT 1. IWETIT 1 IHDWET 0
END OPTIONS

BEGIN GRIDDATA
  ICELLTYPE
    CONSTANT  1
  K
    CONSTANT 1.0
  K33
    CONSTANT 1.0
  wetdry
    CONSTANT -2.000000E+00
END GRIDDATA
