BEGIN Options
  PRINT_OPTION SUMMARY
END Options

BEGIN Nonlinear
  OUTER_HCLOSE   1.0E-06
  OUTER_MAXIMUM  500
  UNDER_RELAXATION  NONE  
END Nonlinear

BEGIN LINEAR
  INNER_MAXIMUM  100
  INNER_HCLOSE   1.E-06
  INNER_RCLOSE   500.
  LINEAR_ACCELERATION  cg
  NUMBER_ORTHOGONALIZATIONS 2
  RELAXATION_FACTOR 0.97
END LINEAR

