BEGIN OPTIONS
  BUDGET FILEOUT  flowdivert.cbc
  HEAD FILEOUT  flowdivert.hds
  HEAD PRINT_FORMAT  COLUMNS 10  WIDTH 11  DIGITS 4  GENERAL
END OPTIONS

BEGIN PERIOD 1
  SAVE BUDGET ALL
  PRINT BUDGET ALL
  SAVE HEAD ALL
  PRINT HEAD ALL
END PERIOD
