BEGIN OPTIONS
  HEAD FILEOUT NT_Transient.hds
  BUDGET FILEOUT NT_Transient.cbc
END OPTIONS

BEGIN PERIOD 1
  PRINT BUDGET FREQUENCY 1
  SAVE BUDGET FREQUENCY 1
  SAVE HEAD FREQUENCY 1
  PRINT HEAD LAST
END PERIOD
