begin options
  digits 10
  print_input
end options

begin continuous FILEOUT budget.maw.csv
  from-mvr     from-mvr       ntwell
  maw          maw            ntwell
  rate         rate           ntwell
  rate-to-mvr  rate-to-mvr    ntwell
  fw-rate      fw-rate        ntwell
  fw-to-mvr    fw-to-mvr      ntwell
  storage      storage        ntwell
  constant     constant       ntwell
  cond1-1      conductance    1 1
  cond1-2      conductance    1 2
  cond         conductance    ntwell
  fw-cond1     fw-conductance 1
  fw-cond      fw-conductance ntwell
end continuous

begin continuous FILEOUT NT_MAW_Transient1.csv
  M1HEAD0   HEAD  1
  M1RATE0   RATE  1
end continuous

begin continuous FILEOUT NT_MAW_Transient2.csv
  M1HEAD   HEAD  1
  M1RATE   RATE  1
  L1FLOW   MAW   1 1
  L2FLOW   MAW   1 2
  AQFLOW   MAW   NTWELL
end continuous
