# sms8 input file, prepared by mf5to15 on 6/29/2015 at 10:25:19.

begin options
  print_option summary
  complexity  simple
end options

begin nonlinear
  outer_dvclose   0.10000000e-02
  outer_maximum  50
  under_relaxation  none
end nonlinear

begin linear
  inner_maximum  100
  inner_dvclose   0.10000000e-03
  inner_rclose   0.10000000    
  linear_acceleration  cg
end linear
