BEGIN OPTIONS
  HEAD FILEOUT mfusg_C.hds
END OPTIONS

BEGIN PERIOD 1
  PRINT BUDGET LAST
  SAVE HEAD LAST
END PERIOD
