begin options
  #PRINT_INPUT
  PRINT_FLOWS
  SAVE_FLOWS
end options

begin dimensions
  MAXBOUND 1600
end dimensions

begin period 1
1 1 1 48 
1 2 1 48 
1 3 1 48 
1 4 1 48 
1 5 1 48 
1 6 1 48 
1 7 1 48 
1 8 1 48 
1 9 1 48 
1 10 1 48
1 11 1 48
1 12 1 48
1 13 1 48
1 14 1 48
1 15 1 48
1 16 1 48
1 17 1 48
1 18 1 48
1 19 1 48
1 20 1 48
1 21 1 48
1 22 1 48
1 23 1 48
1 24 1 48
1 25 1 48
1 26 1 48
1 27 1 48
1 28 1 48
1 29 1 48
1 30 1 48
1 31 1 48
1 32 1 48
1 33 1 48
1 34 1 48
1 35 1 48
1 36 1 48
1 37 1 48
1 38 1 48
1 39 1 48
1 40 1 48
1 41 1 48
1 42 1 48
1 43 1 48
1 44 1 48
1 45 1 48
1 46 1 48
1 47 1 48
1 48 1 48
1 49 1 48
1 50 1 48
1 51 1 48
1 52 1 48
1 53 1 48
1 54 1 48
1 55 1 48
1 56 1 48
1 57 1 48
1 58 1 48
1 59 1 48
1 60 1 48
1 61 1 48
1 62 1 48
1 63 1 48
1 64 1 48
1 65 1 48
1 66 1 48
1 67 1 48
1 68 1 48
1 69 1 48
1 70 1 48
1 71 1 48
1 72 1 48
1 73 1 48
1 74 1 48
1 75 1 48
1 76 1 48
1 77 1 48
1 78 1 48
1 79 1 48
1 80 1 48
1 81 1 48
1 82 1 48
1 83 1 48
1 84 1 48
1 85 1 48
1 86 1 48
1 87 1 48
1 88 1 48
1 89 1 48
1 90 1 48
1 91 1 48
1 92 1 48
1 93 1 48
1 94 1 48
1 95 1 48
1 96 1 48
1 97 1 48
1 98 1 48
1 99 1 48
1 100 1 48
1 101 1 48
1 102 1 48
1 103 1 48
1 104 1 48
1 105 1 48
1 106 1 48
1 107 1 48
1 108 1 48
1 109 1 48
1 110 1 48
1 111 1 48
1 112 1 48
1 113 1 48
1 114 1 48
1 115 1 48
1 116 1 48
1 117 1 48
1 118 1 48
1 119 1 48
1 120 1 48
1 121 1 48
1 122 1 48
1 123 1 48
1 124 1 48
1 125 1 48
1 126 1 48
1 127 1 48
1 128 1 48
1 129 1 48
1 130 1 48
1 131 1 48
1 132 1 48
1 133 1 48
1 134 1 48
1 135 1 48
1 136 1 48
1 137 1 48
1 138 1 48
1 139 1 48
1 140 1 48
1 141 1 48
1 142 1 48
1 143 1 48
1 144 1 48
1 145 1 48
1 146 1 48
1 147 1 48
1 148 1 48
1 149 1 48
1 150 1 48
1 151 1 48
1 152 1 48
1 153 1 48
1 154 1 48
1 155 1 48
1 156 1 48
1 157 1 48
1 158 1 48
1 159 1 48
1 160 1 48
1 161 1 48
1 162 1 48
1 163 1 48
1 164 1 48
1 165 1 48
1 166 1 48
1 167 1 48
1 168 1 48
1 169 1 48
1 170 1 48
1 171 1 48
1 172 1 48
1 173 1 48
1 174 1 48
1 175 1 48
1 176 1 48
1 177 1 48
1 178 1 48
1 179 1 48
1 180 1 48
1 181 1 48
1 182 1 48
1 183 1 48
1 184 1 48
1 185 1 48
1 186 1 48
1 187 1 48
1 188 1 48
1 189 1 48
1 190 1 48
1 191 1 48
1 192 1 48
1 193 1 48
1 194 1 48
1 195 1 48
1 196 1 48
1 197 1 48
1 198 1 48
1 199 1 48
1 200 1 48
1 201 1 48
1 202 1 48
1 203 1 48
1 204 1 48
1 205 1 48
1 206 1 48
1 207 1 48
1 208 1 48
1 209 1 48
1 210 1 48
1 211 1 48
1 212 1 48
1 213 1 48
1 214 1 48
1 215 1 48
1 216 1 48
1 217 1 48
1 218 1 48
1 219 1 48
1 220 1 48
1 221 1 48
1 222 1 48
1 223 1 48
1 224 1 48
1 225 1 48
1 226 1 48
1 227 1 48
1 228 1 48
1 229 1 48
1 230 1 48
1 231 1 48
1 232 1 48
1 233 1 48
1 234 1 48
1 235 1 48
1 236 1 48
1 237 1 48
1 238 1 48
1 239 1 48
1 240 1 48
1 241 1 48
1 242 1 48
1 243 1 48
1 244 1 48
1 245 1 48
1 246 1 48
1 247 1 48
1 248 1 48
1 249 1 48
1 250 1 48
1 251 1 48
1 252 1 48
1 253 1 48
1 254 1 48
1 255 1 48
1 256 1 48
1 257 1 48
1 258 1 48
1 259 1 48
1 260 1 48
1 261 1 48
1 262 1 48
1 263 1 48
1 264 1 48
1 265 1 48
1 266 1 48
1 267 1 48
1 268 1 48
1 269 1 48
1 270 1 48
1 271 1 48
1 272 1 48
1 273 1 48
1 274 1 48
1 275 1 48
1 276 1 48
1 277 1 48
1 278 1 48
1 279 1 48
1 280 1 48
1 281 1 48
1 282 1 48
1 283 1 48
1 284 1 48
1 285 1 48
1 286 1 48
1 287 1 48
1 288 1 48
1 289 1 48
1 290 1 48
1 291 1 48
1 292 1 48
1 293 1 48
1 294 1 48
1 295 1 48
1 296 1 48
1 297 1 48
1 298 1 48
1 299 1 48
1 300 1 48
1 301 1 48
1 302 1 48
1 303 1 48
1 304 1 48
1 305 1 48
1 306 1 48
1 307 1 48
1 308 1 48
1 309 1 48
1 310 1 48
1 311 1 48
1 312 1 48
1 313 1 48
1 314 1 48
1 315 1 48
1 316 1 48
1 317 1 48
1 318 1 48
1 319 1 48
1 320 1 48
1 321 1 48
1 322 1 48
1 323 1 48
1 324 1 48
1 325 1 48
1 326 1 48
1 327 1 48
1 328 1 48
1 329 1 48
1 330 1 48
1 331 1 48
1 332 1 48
1 333 1 48
1 334 1 48
1 335 1 48
1 336 1 48
1 337 1 48
1 338 1 48
1 339 1 48
1 340 1 48
1 341 1 48
1 342 1 48
1 343 1 48
1 344 1 48
1 345 1 48
1 346 1 48
1 347 1 48
1 348 1 48
1 349 1 48
1 350 1 48
1 351 1 48
1 352 1 48
1 353 1 48
1 354 1 48
1 355 1 48
1 356 1 48
1 357 1 48
1 358 1 48
1 359 1 48
1 360 1 48
1 361 1 48
1 362 1 48
1 363 1 48
1 364 1 48
1 365 1 48
1 366 1 48
1 367 1 48
1 368 1 48
1 369 1 48
1 370 1 48
1 371 1 48
1 372 1 48
1 373 1 48
1 374 1 48
1 375 1 48
1 376 1 48
1 377 1 48
1 378 1 48
1 379 1 48
1 380 1 48
1 381 1 48
1 382 1 48
1 383 1 48
1 384 1 48
1 385 1 48
1 386 1 48
1 387 1 48
1 388 1 48
1 389 1 48
1 390 1 48
1 391 1 48
1 392 1 48
1 393 1 48
1 394 1 48
1 395 1 48
1 396 1 48
1 397 1 48
1 398 1 48
1 399 1 48
1 400 1 48
1 401 1 48
1 402 1 48
1 403 1 48
1 404 1 48
1 405 1 48
1 406 1 48
1 407 1 48
1 408 1 48
1 409 1 48
1 410 1 48
1 411 1 48
1 412 1 48
1 413 1 48
1 414 1 48
1 415 1 48
1 416 1 48
1 417 1 48
1 418 1 48
1 419 1 48
1 420 1 48
1 421 1 48
1 422 1 48
1 423 1 48
1 424 1 48
1 425 1 48
1 426 1 48
1 427 1 48
1 428 1 48
1 429 1 48
1 430 1 48
1 431 1 48
1 432 1 48
1 433 1 48
1 434 1 48
1 435 1 48
1 436 1 48
1 437 1 48
1 438 1 48
1 439 1 48
1 440 1 48
1 441 1 48
1 442 1 48
1 443 1 48
1 444 1 48
1 445 1 48
1 446 1 48
1 447 1 48
1 448 1 48
1 449 1 48
1 450 1 48
1 451 1 48
1 452 1 48
1 453 1 48
1 454 1 48
1 455 1 48
1 456 1 48
1 457 1 48
1 458 1 48
1 459 1 48
1 460 1 48
1 461 1 48
1 462 1 48
1 463 1 48
1 464 1 48
1 465 1 48
1 466 1 48
1 467 1 48
1 468 1 48
1 469 1 48
1 470 1 48
1 471 1 48
1 472 1 48
1 473 1 48
1 474 1 48
1 475 1 48
1 476 1 48
1 477 1 48
1 478 1 48
1 479 1 48
1 480 1 48
1 481 1 48
1 482 1 48
1 483 1 48
1 484 1 48
1 485 1 48
1 486 1 48
1 487 1 48
1 488 1 48
1 489 1 48
1 490 1 48
1 491 1 48
1 492 1 48
1 493 1 48
1 494 1 48
1 495 1 48
1 496 1 48
1 497 1 48
1 498 1 48
1 499 1 48
1 500 1 48
1 501 1 48
1 502 1 48
1 503 1 48
1 504 1 48
1 505 1 48
1 506 1 48
1 507 1 48
1 508 1 48
1 509 1 48
1 510 1 48
1 511 1 48
1 512 1 48
1 513 1 48
1 514 1 48
1 515 1 48
1 516 1 48
1 517 1 48
1 518 1 48
1 519 1 48
1 520 1 48
1 521 1 48
1 522 1 48
1 523 1 48
1 524 1 48
1 525 1 48
1 526 1 48
1 527 1 48
1 528 1 48
1 529 1 48
1 530 1 48
1 531 1 48
1 532 1 48
1 533 1 48
1 534 1 48
1 535 1 48
1 536 1 48
1 537 1 48
1 538 1 48
1 539 1 48
1 540 1 48
1 541 1 48
1 542 1 48
1 543 1 48
1 544 1 48
1 545 1 48
1 546 1 48
1 547 1 48
1 548 1 48
1 549 1 48
1 550 1 48
1 551 1 48
1 552 1 48
1 553 1 48
1 554 1 48
1 555 1 48
1 556 1 48
1 557 1 48
1 558 1 48
1 559 1 48
1 560 1 48
1 561 1 48
1 562 1 48
1 563 1 48
1 564 1 48
1 565 1 48
1 566 1 48
1 567 1 48
1 568 1 48
1 569 1 48
1 570 1 48
1 571 1 48
1 572 1 48
1 573 1 48
1 574 1 48
1 575 1 48
1 576 1 48
1 577 1 48
1 578 1 48
1 579 1 48
1 580 1 48
1 581 1 48
1 582 1 48
1 583 1 48
1 584 1 48
1 585 1 48
1 586 1 48
1 587 1 48
1 588 1 48
1 589 1 48
1 590 1 48
1 591 1 48
1 592 1 48
1 593 1 48
1 594 1 48
1 595 1 48
1 596 1 48
1 597 1 48
1 598 1 48
1 599 1 48
1 600 1 48
1 601 1 48
1 602 1 48
1 603 1 48
1 604 1 48
1 605 1 48
1 606 1 48
1 607 1 48
1 608 1 48
1 609 1 48
1 610 1 48
1 611 1 48
1 612 1 48
1 613 1 48
1 614 1 48
1 615 1 48
1 616 1 48
1 617 1 48
1 618 1 48
1 619 1 48
1 620 1 48
1 621 1 48
1 622 1 48
1 623 1 48
1 624 1 48
1 625 1 48
1 626 1 48
1 627 1 48
1 628 1 48
1 629 1 48
1 630 1 48
1 631 1 48
1 632 1 48
1 633 1 48
1 634 1 48
1 635 1 48
1 636 1 48
1 637 1 48
1 638 1 48
1 639 1 48
1 640 1 48
1 641 1 48
1 642 1 48
1 643 1 48
1 644 1 48
1 645 1 48
1 646 1 48
1 647 1 48
1 648 1 48
1 649 1 48
1 650 1 48
1 651 1 48
1 652 1 48
1 653 1 48
1 654 1 48
1 655 1 48
1 656 1 48
1 657 1 48
1 658 1 48
1 659 1 48
1 660 1 48
1 661 1 48
1 662 1 48
1 663 1 48
1 664 1 48
1 665 1 48
1 666 1 48
1 667 1 48
1 668 1 48
1 669 1 48
1 670 1 48
1 671 1 48
1 672 1 48
1 673 1 48
1 674 1 48
1 675 1 48
1 676 1 48
1 677 1 48
1 678 1 48
1 679 1 48
1 680 1 48
1 681 1 48
1 682 1 48
1 683 1 48
1 684 1 48
1 685 1 48
1 686 1 48
1 687 1 48
1 688 1 48
1 689 1 48
1 690 1 48
1 691 1 48
1 692 1 48
1 693 1 48
1 694 1 48
1 695 1 48
1 696 1 48
1 697 1 48
1 698 1 48
1 699 1 48
1 700 1 48
1 701 1 48
1 702 1 48
1 703 1 48
1 704 1 48
1 705 1 48
1 706 1 48
1 707 1 48
1 708 1 48
1 709 1 48
1 710 1 48
1 711 1 48
1 712 1 48
1 713 1 48
1 714 1 48
1 715 1 48
1 716 1 48
1 717 1 48
1 718 1 48
1 719 1 48
1 720 1 48
1 721 1 48
1 722 1 48
1 723 1 48
1 724 1 48
1 725 1 48
1 726 1 48
1 727 1 48
1 728 1 48
1 729 1 48
1 730 1 48
1 731 1 48
1 732 1 48
1 733 1 48
1 734 1 48
1 735 1 48
1 736 1 48
1 737 1 48
1 738 1 48
1 739 1 48
1 740 1 48
1 741 1 48
1 742 1 48
1 743 1 48
1 744 1 48
1 745 1 48
1 746 1 48
1 747 1 48
1 748 1 48
1 749 1 48
1 750 1 48
1 751 1 48
1 752 1 48
1 753 1 48
1 754 1 48
1 755 1 48
1 756 1 48
1 757 1 48
1 758 1 48
1 759 1 48
1 760 1 48
1 761 1 48
1 762 1 48
1 763 1 48
1 764 1 48
1 765 1 48
1 766 1 48
1 767 1 48
1 768 1 48
1 769 1 48
1 770 1 48
1 771 1 48
1 772 1 48
1 773 1 48
1 774 1 48
1 775 1 48
1 1 751 40
1 2 751 40
1 3 751 40
1 4 751 40
1 5 751 40
1 6 751 40
1 7 751 40
1 8 751 40
1 9 751 40
1 10 751 40
1 11 751 40
1 12 751 40
1 13 751 40
1 14 751 40
1 15 751 40
1 16 751 40
1 17 751 40
1 18 751 40
1 19 751 40
1 20 751 40
1 21 751 40
1 22 751 40
1 23 751 40
1 24 751 40
1 25 751 40
1 26 751 40
1 27 751 40
1 28 751 40
1 29 751 40
1 30 751 40
1 31 751 40
1 32 751 40
1 33 751 40
1 34 751 40
1 35 751 40
1 36 751 40
1 37 751 40
1 38 751 40
1 39 751 40
1 40 751 40
1 41 751 40
1 42 751 40
1 43 751 40
1 44 751 40
1 45 751 40
1 46 751 40
1 47 751 40
1 48 751 40
1 49 751 40
1 50 751 40
1 51 751 40
1 52 751 40
1 53 751 40
1 54 751 40
1 55 751 40
1 56 751 40
1 57 751 40
1 58 751 40
1 59 751 40
1 60 751 40
1 61 751 40
1 62 751 40
1 63 751 40
1 64 751 40
1 65 751 40
1 66 751 40
1 67 751 40
1 68 751 40
1 69 751 40
1 70 751 40
1 71 751 40
1 72 751 40
1 73 751 40
1 74 751 40
1 75 751 40
1 76 751 40
1 77 751 40
1 78 751 40
1 79 751 40
1 80 751 40
1 81 751 40
1 82 751 40
1 83 751 40
1 84 751 40
1 85 751 40
1 86 751 40
1 87 751 40
1 88 751 40
1 89 751 40
1 90 751 40
1 91 751 40
1 92 751 40
1 93 751 40
1 94 751 40
1 95 751 40
1 96 751 40
1 97 751 40
1 98 751 40
1 99 751 40
1 100 751 40
1 101 751 40
1 102 751 40
1 103 751 40
1 104 751 40
1 105 751 40
1 106 751 40
1 107 751 40
1 108 751 40
1 109 751 40
1 110 751 40
1 111 751 40
1 112 751 40
1 113 751 40
1 114 751 40
1 115 751 40
1 116 751 40
1 117 751 40
1 118 751 40
1 119 751 40
1 120 751 40
1 121 751 40
1 122 751 40
1 123 751 40
1 124 751 40
1 125 751 40
1 126 751 40
1 127 751 40
1 128 751 40
1 129 751 40
1 130 751 40
1 131 751 40
1 132 751 40
1 133 751 40
1 134 751 40
1 135 751 40
1 136 751 40
1 137 751 40
1 138 751 40
1 139 751 40
1 140 751 40
1 141 751 40
1 142 751 40
1 143 751 40
1 144 751 40
1 145 751 40
1 146 751 40
1 147 751 40
1 148 751 40
1 149 751 40
1 150 751 40
1 151 751 40
1 152 751 40
1 153 751 40
1 154 751 40
1 155 751 40
1 156 751 40
1 157 751 40
1 158 751 40
1 159 751 40
1 160 751 40
1 161 751 40
1 162 751 40
1 163 751 40
1 164 751 40
1 165 751 40
1 166 751 40
1 167 751 40
1 168 751 40
1 169 751 40
1 170 751 40
1 171 751 40
1 172 751 40
1 173 751 40
1 174 751 40
1 175 751 40
1 176 751 40
1 177 751 40
1 178 751 40
1 179 751 40
1 180 751 40
1 181 751 40
1 182 751 40
1 183 751 40
1 184 751 40
1 185 751 40
1 186 751 40
1 187 751 40
1 188 751 40
1 189 751 40
1 190 751 40
1 191 751 40
1 192 751 40
1 193 751 40
1 194 751 40
1 195 751 40
1 196 751 40
1 197 751 40
1 198 751 40
1 199 751 40
1 200 751 40
1 201 751 40
1 202 751 40
1 203 751 40
1 204 751 40
1 205 751 40
1 206 751 40
1 207 751 40
1 208 751 40
1 209 751 40
1 210 751 40
1 211 751 40
1 212 751 40
1 213 751 40
1 214 751 40
1 215 751 40
1 216 751 40
1 217 751 40
1 218 751 40
1 219 751 40
1 220 751 40
1 221 751 40
1 222 751 40
1 223 751 40
1 224 751 40
1 225 751 40
1 226 751 40
1 227 751 40
1 228 751 40
1 229 751 40
1 230 751 40
1 231 751 40
1 232 751 40
1 233 751 40
1 234 751 40
1 235 751 40
1 236 751 40
1 237 751 40
1 238 751 40
1 239 751 40
1 240 751 40
1 241 751 40
1 242 751 40
1 243 751 40
1 244 751 40
1 245 751 40
1 246 751 40
1 247 751 40
1 248 751 40
1 249 751 40
1 250 751 40
1 251 751 40
1 252 751 40
1 253 751 40
1 254 751 40
1 255 751 40
1 256 751 40
1 257 751 40
1 258 751 40
1 259 751 40
1 260 751 40
1 261 751 40
1 262 751 40
1 263 751 40
1 264 751 40
1 265 751 40
1 266 751 40
1 267 751 40
1 268 751 40
1 269 751 40
1 270 751 40
1 271 751 40
1 272 751 40
1 273 751 40
1 274 751 40
1 275 751 40
1 276 751 40
1 277 751 40
1 278 751 40
1 279 751 40
1 280 751 40
1 281 751 40
1 282 751 40
1 283 751 40
1 284 751 40
1 285 751 40
1 286 751 40
1 287 751 40
1 288 751 40
1 289 751 40
1 290 751 40
1 291 751 40
1 292 751 40
1 293 751 40
1 294 751 40
1 295 751 40
1 296 751 40
1 297 751 40
1 298 751 40
1 299 751 40
1 300 751 40
1 301 751 40
1 302 751 40
1 303 751 40
1 304 751 40
1 305 751 40
1 306 751 40
1 307 751 40
1 308 751 40
1 309 751 40
1 310 751 40
1 311 751 40
1 312 751 40
1 313 751 40
1 314 751 40
1 315 751 40
1 316 751 40
1 317 751 40
1 318 751 40
1 319 751 40
1 320 751 40
1 321 751 40
1 322 751 40
1 323 751 40
1 324 751 40
1 325 751 40
1 326 751 40
1 327 751 40
1 328 751 40
1 329 751 40
1 330 751 40
1 331 751 40
1 332 751 40
1 333 751 40
1 334 751 40
1 335 751 40
1 336 751 40
1 337 751 40
1 338 751 40
1 339 751 40
1 340 751 40
1 341 751 40
1 342 751 40
1 343 751 40
1 344 751 40
1 345 751 40
1 346 751 40
1 347 751 40
1 348 751 40
1 349 751 40
1 350 751 40
1 351 751 40
1 352 751 40
1 353 751 40
1 354 751 40
1 355 751 40
1 356 751 40
1 357 751 40
1 358 751 40
1 359 751 40
1 360 751 40
1 361 751 40
1 362 751 40
1 363 751 40
1 364 751 40
1 365 751 40
1 366 751 40
1 367 751 40
1 368 751 40
1 369 751 40
1 370 751 40
1 371 751 40
1 372 751 40
1 373 751 40
1 374 751 40
1 375 751 40
1 376 751 40
1 377 751 40
1 378 751 40
1 379 751 40
1 380 751 40
1 381 751 40
1 382 751 40
1 383 751 40
1 384 751 40
1 385 751 40
1 386 751 40
1 387 751 40
1 388 751 40
1 389 751 40
1 390 751 40
1 391 751 40
1 392 751 40
1 393 751 40
1 394 751 40
1 395 751 40
1 396 751 40
1 397 751 40
1 398 751 40
1 399 751 40
1 400 751 40
1 401 751 40
1 402 751 40
1 403 751 40
1 404 751 40
1 405 751 40
1 406 751 40
1 407 751 40
1 408 751 40
1 409 751 40
1 410 751 40
1 411 751 40
1 412 751 40
1 413 751 40
1 414 751 40
1 415 751 40
1 416 751 40
1 417 751 40
1 418 751 40
1 419 751 40
1 420 751 40
1 421 751 40
1 422 751 40
1 423 751 40
1 424 751 40
1 425 751 40
1 426 751 40
1 427 751 40
1 428 751 40
1 429 751 40
1 430 751 40
1 431 751 40
1 432 751 40
1 433 751 40
1 434 751 40
1 435 751 40
1 436 751 40
1 437 751 40
1 438 751 40
1 439 751 40
1 440 751 40
1 441 751 40
1 442 751 40
1 443 751 40
1 444 751 40
1 445 751 40
1 446 751 40
1 447 751 40
1 448 751 40
1 449 751 40
1 450 751 40
1 451 751 40
1 452 751 40
1 453 751 40
1 454 751 40
1 455 751 40
1 456 751 40
1 457 751 40
1 458 751 40
1 459 751 40
1 460 751 40
1 461 751 40
1 462 751 40
1 463 751 40
1 464 751 40
1 465 751 40
1 466 751 40
1 467 751 40
1 468 751 40
1 469 751 40
1 470 751 40
1 471 751 40
1 472 751 40
1 473 751 40
1 474 751 40
1 475 751 40
1 476 751 40
1 477 751 40
1 478 751 40
1 479 751 40
1 480 751 40
1 481 751 40
1 482 751 40
1 483 751 40
1 484 751 40
1 485 751 40
1 486 751 40
1 487 751 40
1 488 751 40
1 489 751 40
1 490 751 40
1 491 751 40
1 492 751 40
1 493 751 40
1 494 751 40
1 495 751 40
1 496 751 40
1 497 751 40
1 498 751 40
1 499 751 40
1 500 751 40
1 501 751 40
1 502 751 40
1 503 751 40
1 504 751 40
1 505 751 40
1 506 751 40
1 507 751 40
1 508 751 40
1 509 751 40
1 510 751 40
1 511 751 40
1 512 751 40
1 513 751 40
1 514 751 40
1 515 751 40
1 516 751 40
1 517 751 40
1 518 751 40
1 519 751 40
1 520 751 40
1 521 751 40
1 522 751 40
1 523 751 40
1 524 751 40
1 525 751 40
1 526 751 40
1 527 751 40
1 528 751 40
1 529 751 40
1 530 751 40
1 531 751 40
1 532 751 40
1 533 751 40
1 534 751 40
1 535 751 40
1 536 751 40
1 537 751 40
1 538 751 40
1 539 751 40
1 540 751 40
1 541 751 40
1 542 751 40
1 543 751 40
1 544 751 40
1 545 751 40
1 546 751 40
1 547 751 40
1 548 751 40
1 549 751 40
1 550 751 40
1 551 751 40
1 552 751 40
1 553 751 40
1 554 751 40
1 555 751 40
1 556 751 40
1 557 751 40
1 558 751 40
1 559 751 40
1 560 751 40
1 561 751 40
1 562 751 40
1 563 751 40
1 564 751 40
1 565 751 40
1 566 751 40
1 567 751 40
1 568 751 40
1 569 751 40
1 570 751 40
1 571 751 40
1 572 751 40
1 573 751 40
1 574 751 40
1 575 751 40
1 576 751 40
1 577 751 40
1 578 751 40
1 579 751 40
1 580 751 40
1 581 751 40
1 582 751 40
1 583 751 40
1 584 751 40
1 585 751 40
1 586 751 40
1 587 751 40
1 588 751 40
1 589 751 40
1 590 751 40
1 591 751 40
1 592 751 40
1 593 751 40
1 594 751 40
1 595 751 40
1 596 751 40
1 597 751 40
1 598 751 40
1 599 751 40
1 600 751 40
1 601 751 40
1 602 751 40
1 603 751 40
1 604 751 40
1 605 751 40
1 606 751 40
1 607 751 40
1 608 751 40
1 609 751 40
1 610 751 40
1 611 751 40
1 612 751 40
1 613 751 40
1 614 751 40
1 615 751 40
1 616 751 40
1 617 751 40
1 618 751 40
1 619 751 40
1 620 751 40
1 621 751 40
1 622 751 40
1 623 751 40
1 624 751 40
1 625 751 40
1 626 751 40
1 627 751 40
1 628 751 40
1 629 751 40
1 630 751 40
1 631 751 40
1 632 751 40
1 633 751 40
1 634 751 40
1 635 751 40
1 636 751 40
1 637 751 40
1 638 751 40
1 639 751 40
1 640 751 40
1 641 751 40
1 642 751 40
1 643 751 40
1 644 751 40
1 645 751 40
1 646 751 40
1 647 751 40
1 648 751 40
1 649 751 40
1 650 751 40
1 651 751 40
1 652 751 40
1 653 751 40
1 654 751 40
1 655 751 40
1 656 751 40
1 657 751 40
1 658 751 40
1 659 751 40
1 660 751 40
1 661 751 40
1 662 751 40
1 663 751 40
1 664 751 40
1 665 751 40
1 666 751 40
1 667 751 40
1 668 751 40
1 669 751 40
1 670 751 40
1 671 751 40
1 672 751 40
1 673 751 40
1 674 751 40
1 675 751 40
1 676 751 40
1 677 751 40
1 678 751 40
1 679 751 40
1 680 751 40
1 681 751 40
1 682 751 40
1 683 751 40
1 684 751 40
1 685 751 40
1 686 751 40
1 687 751 40
1 688 751 40
1 689 751 40
1 690 751 40
1 691 751 40
1 692 751 40
1 693 751 40
1 694 751 40
1 695 751 40
1 696 751 40
1 697 751 40
1 698 751 40
1 699 751 40
1 700 751 40
1 701 751 40
1 702 751 40
1 703 751 40
1 704 751 40
1 705 751 40
1 706 751 40
1 707 751 40
1 708 751 40
1 709 751 40
1 710 751 40
1 711 751 40
1 712 751 40
1 713 751 40
1 714 751 40
1 715 751 40
1 716 751 40
1 717 751 40
1 718 751 40
1 719 751 40
1 720 751 40
1 721 751 40
1 722 751 40
1 723 751 40
1 724 751 40
1 725 751 40
1 726 751 40
1 727 751 40
1 728 751 40
1 729 751 40
1 730 751 40
1 731 751 40
1 732 751 40
1 733 751 40
1 734 751 40
1 735 751 40
1 736 751 40
1 737 751 40
1 738 751 40
1 739 751 40
1 740 751 40
1 741 751 40
1 742 751 40
1 743 751 40
1 744 751 40
1 745 751 40
1 746 751 40
1 747 751 40
1 748 751 40
1 749 751 40
1 750 751 40
1 751 751 40
1 752 751 40
1 753 751 40
1 754 751 40
1 755 751 40
1 756 751 40
1 757 751 40
1 758 751 40
1 759 751 40
1 760 751 40
1 761 751 40
1 762 751 40
1 763 751 40
1 764 751 40
1 765 751 40
1 766 751 40
1 767 751 40
1 768 751 40
1 769 751 40
1 770 751 40
1 771 751 40
1 772 751 40
1 773 751 40
1 774 751 40
1 775 751 40
end period
