BEGIN OPTIONS
  TIME_UNITS DAYS
END OPTIONS

BEGIN DIMENSIONS
  NPER 3
END DIMENSIONS

BEGIN PERIODDATA
 #perlen nstp  tsmult
    1.0    1    1.0
 1000.0   10    1.5
    1.0    1    1.0
END PERIODDATA
