# Well file for MODFLOW-2000, generated by Flopy.
begin options
end options

begin dimensions
  maxbound 1
end dimensions

begin period 2
1 388 376 -1000
end period
