# Discretization file for MODFLOW-2000, generated by Flopy.
begin options
  length_units meters
end options

begin dimensions
  nlay 1
  nrow 775
  ncol 751
end dimensions

BEGIN GRIDDATA
  delr
    constant 25.6
  delc
    constant 25.6
  top
    constant 0.
  botm
    constant -100
END GRIDDATA

