BEGIN OPTIONS
END OPTIONS

BEGIN DIMENSIONS
  NLAY 10
  NROW 10
  NCOL 51
END DIMENSIONS

BEGIN GRIDDATA
  DELR
    CONSTANT   100.0000    
  DELC
    CONSTANT   100.0000    
  TOP
    CONSTANT   500.0000    
  BOTM LAYERED
    CONSTANT   400.0000    
    CONSTANT   300.0000    
    CONSTANT   200.0000    
    CONSTANT   100.0000    
    CONSTANT   0.000000    
    CONSTANT  -100.0000    
    CONSTANT  -200.0000    
    CONSTANT  -300.0000    
    CONSTANT  -400.0000    
    CONSTANT  -500.0000    
END GRIDDATA
