
BEGIN OPTIONS
  HEAD FILEOUT test001e_noUZF.hds
  BUDGET FILEOUT test001e_noUZF.cbc
END OPTIONS

BEGIN PERIOD 1
  PRINT HEAD FIRST
  PRINT BUDGET FIRST
  PRINT HEAD LAST
  SAVE HEAD LAST
  PRINT BUDGET LAST
  SAVE BUDGET LAST
END PERIOD
