# sms8 input file, prepared by mf5to15 on 4/10/2015 at 9:04:54.

begin options
  print_option summary
  complexity  simple
end options

begin nonlinear
  outer_dvclose   1.e-09
  outer_maximum  50
  under_relaxation  dbd
  under_relaxation_theta 1.
  under_relaxation_kappa 0.
  under_relaxation_gamma 0.
  under_relaxation_momentum 0.  
end nonlinear

begin linear
  inner_maximum  30
  inner_dvclose   1.e-09
  inner_rclose   1.e-06 relative_rclose
  linear_acceleration  bicgstab
  number_orthogonalizations 5
  preconditioner_levels  3
end linear
