BEGIN OPTIONS
  PRINT_INPUT
  PRINT_FLOWS
END OPTIONS

BEGIN DIMENSIONS
  NUMGNC 24
  NUMALPHAJ 1
END DIMENSIONS

BEGIN GNCDATA
 1 10  1 41  1 9  0.333333333333 
 1 10  1 43  1 11  0.333333333333 
 1 11  1 44  1 10  0.333333333333 
 1 11  1 46  1 12  0.333333333333 
 1 12  1 47  1 11  0.333333333333 
 1 12  1 49  1 13  0.333333333333 
 1 16  1 41  1 9  0.333333333333 
 1 16  1 59  1 20  0.333333333333 
 1 17  1 49  1 13  0.333333333333 
 1 17  1 67  1 21  0.333333333333 
 1 20  1 68  1 16  0.333333333333 
 1 20  1 86  1 24  0.333333333333 
 1 21  1 76  1 17  0.333333333333 
 1 21  1 94  1 25  0.333333333333 
 1 24  1 95  1 20  0.333333333333 
 1 24  1 113  1 28  0.333333333333 
 1 25  1 103  1 21  0.333333333333 
 1 25  1 121  1 32  0.333333333333 
 1 29  1 113  1 28  0.333333333333 
 1 29  1 115  1 30  0.333333333333 
 1 30  1 116  1 29  0.333333333333 
 1 30  1 118  1 31  0.333333333333 
 1 31  1 119  1 30  0.333333333333 
 1 31  1 121  1 32  0.333333333333 
END GNCDATA