# sms8 input file, prepared by mf5to6 on 4/1/2016 at 11:10:36.

begin options
  print_option  summary
  complexity  simple
end options

begin nonlinear
  outer_dvclose   1e-6
  outer_maximum  10000
  under_relaxation  none
end nonlinear

begin linear
  inner_maximum  100
  inner_dvclose   1e-6
  inner_rclose   0.1000000
  linear_acceleration  cg
  number_orthogonalizations  2
  reordering_method  none
  relaxation_factor 0.97
end linear

