# Simulation name file for MODFLOW 6 prepared by MF5to6

BEGIN Options
END Options

BEGIN Timing
  TDIS6  lakeex4_il.tdis
END Timing

BEGIN Models
  GWF6  lakeex4_il.nam  lakeex4
END Models

BEGIN Exchanges
END Exchanges

BEGIN SOLUTIONGROUP 1
  MXITER  1
  IMS6  lakeex4_il.ims  lakeex4
END SOLUTIONGROUP
