# DIS package for  MODFLOW-2005, generated by Flopy.
         4        11        11         1         4         2
  0  0  0  0
CONSTANT    1.000000E+01                           #delr                          
CONSTANT    1.000000E+01                           #delc                          
CONSTANT    0.000000E+00                           #model_top                     
CONSTANT   -1.000000E+01                           #botm layer 1                  
CONSTANT   -2.000000E+01                           #botm layer 2                  
CONSTANT   -3.000000E+01                           #botm layer 3                  
CONSTANT   -4.000000E+01                           #botm layer 4                  
      1.000000             1  1.000000  SS 
