# MNW2 package for  MODFLOW-2005, generated by Flopy.
3 0 2
well1 -1
            thiem 0 0 0 0
               1.0000000E+00 
               0.0000000E+00   -1.0000000E+01 2 2
well2 -1
            thiem 0 0 0 0
               1.0000000E+00 
              -1.0000000E+01   -2.0000000E+01 6 6
well3 -1
            thiem 0 0 0 0
               1.0000000E+00 
              -2.0000000E+01   -4.0000000E+01 10 10
1  Stress Period 1
well1   -1.0000000E+02
