# Name file for MODFLOW-2005, generated by Flopy version 3.2.13.
#xll:0; yll:0; rotation:0; units:meters; lenuni:2; ; start_datetime:1-1-1970
LIST               2  modflowtest.list
DIS               11  modflowtest.dis
BAS6              13  modflowtest.bas
LPF               15  modflowtest.lpf
MNW2              34  modflowtest.mnw2
PCG               27  modflowtest.pcg
OC                14  modflowtest.oc
DATA(BINARY)      51  modflowtest.hds REPLACE
