# IC8 input file, prepared by MF5to6 on 4/1/2016 at 11:10:36.

BEGIN Options
END Options

BEGIN GRIDDATA
  STRT LAYERED
    INTERNAL  FACTOR    1.00000000      IPRN  2    Initial head for layer 1
   0.00000000       0.00000000       0.00000000       50.0000000       50.0000000       50.0000000       50.0000000       50.0000000       50.0000000       50.0000000    
   50.0000000       50.1000000       50.1500000       50.1500000       50.1000000       50.0000000       50.0000000       50.0000000       50.0000000       50.0000000    
   50.0000000       49.9407669       49.6398876    
   0.00000000       0.00000000       49.1771287       49.5940965       49.7203346       49.6182796       49.7029510       49.7637535       49.5979105       49.5614891    
   49.7122230       49.6434316       49.3727902       49.1508004       49.3761409       49.4900346       49.1219109       49.0426345       49.4014641       49.1663880    
   49.0822423       49.1916581       48.9389589    
   0.00000000       0.00000000       48.5999949       48.9460826       49.1005996       49.1924665       49.2728056       49.2814217       49.1253292       49.0715794    
   49.0928921       49.0096661       48.9635802       48.6784586       48.7139843       48.5199709       48.4954918       48.3604930       48.1692703       47.9766086    
   47.7602516       47.6185786       47.4633673    
   0.00000000       0.00000000       47.5130990       48.0534102       48.2640861       48.5350426       48.6574886       48.5812717       48.5094174       48.4408321    
   48.3983784       48.3282496       48.1752587       48.0586117       47.7168694       47.6272797       47.4113240       47.2121403       47.0096582       46.6652620    
   46.2745396       46.0410362       45.7695582    
   0.00000000       0.00000000       46.3388422       46.7481384       47.2829423       47.7397651       47.9168926       47.8406633       47.7492222       47.6492226    
   47.5939490       47.5680761       47.2331753       47.1013722       46.9470091       46.7953751       46.3018043       46.1140475       45.8790759       45.3524301    
   45.1027414       45.0461672       44.8151014    
   0.00000000       0.00000000       45.4414591       45.9091469       46.2640515       46.6037285       47.0363997       47.0805247       46.9069335       46.7358528    
   46.6989135       46.7737026       46.5608775       46.4620029       46.0426627       45.8494017       45.6654066       44.7000000       44.7000000       44.7000000    
   44.7000000       44.8370496       44.8759810    
   0.00000000       0.00000000       44.8778639       44.9600126       45.4671994       45.9123469       46.1198789       46.4062205       46.0808476       45.6760902    
   45.6557547       45.8484567       46.0069669       45.7230661       45.5702727       45.2017461       44.7000000       44.7000000       44.7000000       44.7000000    
   44.7000000       44.8398161       44.8906416    
   0.00000000       0.00000000       44.7013120       44.7081730       44.8581773       45.2706101       45.6824489       45.5889665       45.3762275       44.9698786    
   44.9857792       45.2374242       45.4413015       45.2164056       44.7000000       44.7000000       44.7000000       44.7000000       44.7000000       44.7000000    
   44.7000000       44.7000000       44.7000000    
   0.00000000       0.00000000       44.5884888       44.6165254       44.5209792       44.6790872       45.1364770       45.3230345       45.1496888       44.7596337    
   44.7648058       45.0636531       45.1039552       44.8901640       44.7000000       44.7000000       44.7000000       44.7000000       44.7000000       44.7000000    
   44.7000000       44.7000000       44.7000000    
   0.00000000       0.00000000       43.9538250       44.1764815       44.0949479       44.0501658       44.7041074       44.7719428       44.9432294       44.9237054    
   44.8624650       44.8486751       44.8826968       44.7000000       44.7000000       44.7000000       44.7000000       44.7000000       44.7000000       44.7000000    
   44.7000000       44.7000000       44.7000000    
   0.00000000       0.00000000       42.4624809       43.0203588       42.8480570       43.4156049       43.5914339       44.5048071       44.9187280       44.7717673    
   45.0021937       44.8691869       44.7000000       44.7000000       44.7000000       44.7000000       44.7000000       44.7000000       44.7000000       44.7000000    
   44.7000000       44.7000000       44.7000000    
   0.00000000       40.0187919       40.1890490       41.2010853       41.7145109       41.8869785       42.1499745       42.7095565       43.5434116       44.0977324    
   44.7000000       44.7000000       44.7000000       44.7000000       44.7000000       44.7000000       44.7000000       44.7000000       44.7000000       44.7000000    
   44.7000000       44.7000000       44.7000000    
   0.00000000       38.0318327       38.3121717       38.5577088       38.7640495       39.2532850       39.7819894       41.1513620       42.1294643       43.0242059    
   44.7000000       44.7000000       44.7000000       44.7000000       44.7000000       44.7000000       44.7000000       44.7000000       44.7000000       44.7000000    
   44.7000000       44.7000000       44.7000000    
   0.00000000       37.0144809       37.2156862       37.4502402       37.6957353       37.9552979       38.7842291       39.7389830       40.7780210       41.8619603    
   43.4778816       44.7000000       44.7000000       44.7000000       44.7000000       44.7000000       44.7000000       44.7000000       44.7000000       44.7000000    
   44.7000000       44.7000000       44.7000000    
   0.00000000       35.9444953       36.4215938       36.6343108       36.8754464       37.1336434       37.3996415       38.2694964       39.3317557       40.4429304    
   41.7001872       43.3671819       44.1604980       44.7000000       44.7000000       44.7000000       44.7000000       44.7000000       44.7000000       44.7000000    
   44.7000000       44.7000000       44.7000000    
   0.00000000       35.5626843       35.6273852       35.7230947       36.2895228       36.5214773       36.7535614       36.9739108       37.8806673       39.0155847    
   40.3849886       42.3086503       43.2950815       43.6136789       44.2318334       44.7000000       44.7000000       44.7000000       44.7000000       44.7000000    
   44.7000000       44.7000000       44.7000000    
   0.00000000       35.3278000       35.3987003       35.4929286       35.5794350       35.6518006       35.7712665       35.9208101       36.7026380       37.7310353    
   38.2386422       41.7315845       42.8889144       43.2066563       43.6137799       44.2402785       44.4205613       44.5654723       44.6335955       44.6566794    
   44.6259093       44.6347490       44.6230289    
   0.00000000       35.2000000       35.2000000       35.2000000       35.2000000       35.2000000       35.2000000       35.6927454       35.8059884       36.6338249    
   37.7290214       39.6403899       41.5870066       42.1605905       43.1455528       43.5701051       43.9237153       44.2103233       44.4955386       44.6117701    
   44.5670746       44.6616663       44.4979127    
   0.00000000       35.3000000       35.2000000       35.2000000       35.2000000       35.2000000       35.2000000       35.2000000       35.2000000       36.3139945    
   36.7000326       38.3609606       39.6864180       40.9387244       42.0139416       42.5243920       43.0384452       43.7441502       44.0465693       44.1806676    
   44.2214052       44.2227251       44.0229809    
   0.00000000       35.3000000       35.2000000       35.2000000       35.2000000       35.2000000       35.2000000       35.2000000       35.2000000       35.6590725    
   36.3810305       37.2772684       38.9031961       39.5571242       40.6265988       41.5317328       42.0463650       42.5696113       42.9913380       43.3921269    
   43.4347725       43.3786248       43.2302451    
   0.00000000       35.3000000       35.3000000       35.2000000       35.2000000       35.2000000       35.2000000       35.2000000       35.2000000       35.2000000    
   36.0668598       36.7591351       37.6678509       38.6295396       39.4902217       39.8657399       40.6152629       41.1826611       41.6675857       41.8980181    
   42.0744165       41.9151920       41.8358140    
   0.00000000       35.3000000       35.3000000       35.3000000       35.2000000       35.2000000       35.2000000       35.2000000       35.2000000       35.2000000    
   35.7514315       35.9736463       36.6765329       37.4168101       37.9257470       38.2706624       38.5475218       39.4389322       40.0919889       40.2629852    
   39.9154794       39.4734359       39.6892914    
   35.3000000       35.3000000       35.3000000       35.3000000       35.3000000       35.2000000       35.2000000       35.2000000       35.2000000       35.2000000    
   35.3184541       35.6266386       36.2270306       36.8055498       36.9276971       36.4882163       36.6214496       37.6556419       38.6320263       38.7300599    
   37.8422265       36.8635465       37.1061259    
   35.3000000       35.3000000       35.3000000       35.3000000       35.3000000       35.2000000       35.2000000       35.2000000       35.2000000       35.2000000    
   35.1907894       35.2223088       35.5500848       35.9936900       36.0118387       35.5447689       35.3762761       36.2290611       37.3686286       37.4454145    
   36.5694468       35.3453076       35.6999181    
   35.3000000       35.3000000       35.3000000       35.3000000       35.2000000       35.2000000       35.2000000       35.2000000       35.2000000       35.1162638    
   35.1188289       34.9588701       35.0194273       35.6242064       35.5781181       35.3655889       35.3938022       35.9646974       36.6453737       36.7262667    
   36.1324260       35.5277315       35.7602048    
   35.3000000       35.3000000       35.2000000       35.2000000       35.2000000       35.2000000       35.2000000       34.9489946       34.9189873       34.7389262    
   34.7776481       34.6683558       34.3015722       34.6015840       35.0280862       35.4718369       35.3924572       35.7423078       35.9984655       36.5787350    
   36.3516110       36.1111361       36.2040792    
   35.3000000       35.3000000       35.2000000       35.2000000       35.2000000       35.2000000       34.8329724       34.7525422       34.3125109       34.2905901    
   34.2760522       33.9364527       33.8196006       34.1625304       34.0771870       34.2538191       35.1713527       35.5321409       35.6776481       35.7879267    
   35.8346357       36.3498709       36.4379080    
   35.1254837       35.1230959       34.9572036       34.7916975       34.6940043       34.1537261       34.0361805       33.4767015       33.3514835       33.3042589    
   33.2961394       33.2107630       33.1585639       32.8963873       33.3669684       33.5112906       33.9964770       34.4437547       35.1417264       35.2720771    
   35.3942813       35.5072908       36.2750470    
   34.9142400       34.8979327       34.4912601       34.1284872       33.7950813       33.5502699       32.8852851       32.6731553       32.5137471       32.4433657    
   32.0330108       32.0036787       31.7334645       31.8180147       32.5273663       32.6565517       33.1339112       33.2582855       33.7354291       34.5080808    
   34.6728413       34.4385983       34.5989497    
   34.9741137       34.2885843       33.4894848       32.9869804       33.0160985       32.3027415       31.9385724       31.6959503       31.5453325       31.1052647    
   31.0458258       31.0356365       30.8216663       30.9608955       31.0894637       31.7499208       31.8382315       32.1909425       32.3387268       32.4981632    
   32.8558677       33.0297040       34.1637879    
   34.2285369       32.9523432       31.8577809       31.6450822       31.3385519       30.9885457       30.8113943       30.5577034       30.2430173       30.1445290    
   30.0468629       29.8088444       29.9429885       30.1575689       30.3112853       30.4589445       30.3358484       31.2831451       31.4214851       31.8548396    
   32.0650490       32.3057952       33.1609105    
   28.0000000       28.0000000       28.0000000       28.0000000       30.3944857       30.0357932       29.3697973       29.3329207       29.3743277       29.3468855    
   29.1070814       28.9367492       29.1768641       29.4886703       29.6539244       29.5271262       29.6520931       30.2902590       30.4421164       30.4909349    
   30.9961351       31.2454773       31.5799263    
   28.0000000       28.0000000       28.0000000       28.0000000       28.0000000       28.0000000       28.0000000       28.0000000       28.0000000       28.0000000    
   28.0000000       28.2620923       28.6351477       29.0231951       29.0240126       28.9435067       28.9563502       29.1488530       29.5891568       29.6326628    
   29.9839640       30.2114667       30.6023007    
   0.00000000       0.00000000       0.00000000       0.00000000       0.00000000       0.00000000       0.00000000       28.0000000       28.0000000       28.0000000    
   28.0000000       28.0000000       28.0000000       28.0000000       28.0000000       28.0000000       28.0000000       28.0000000       28.0000000       29.0238345    
   28.9896894       29.2703776       29.7306051    
   0.00000000       0.00000000       0.00000000       0.00000000       0.00000000       0.00000000       0.00000000       0.00000000       0.00000000       0.00000000    
   0.00000000       0.00000000       0.00000000       28.0000000       28.0000000       28.0000000       28.0000000       28.0000000       28.0000000       28.0000000    
   28.0000000       28.0000000       28.0000000    
   0.00000000       0.00000000       0.00000000       0.00000000       0.00000000       0.00000000       0.00000000       0.00000000       0.00000000       0.00000000    
   0.00000000       0.00000000       0.00000000       0.00000000       0.00000000       0.00000000       0.00000000       0.00000000       0.00000000       0.00000000    
   28.0000000       28.0000000       28.0000000    
    INTERNAL  FACTOR    1.00000000      IPRN  2    Initial head for layer 2
   0.00000000       0.00000000       0.00000000       50.0000000       50.0000000       50.0000000       50.0000000       50.0000000       50.0000000       50.0000000    
   50.0000000       50.1000000       50.1500000       50.1500000       50.1000000       50.0000000       50.0000000       50.0000000       50.0000000       50.0000000    
   50.0000000       49.9407669       49.6398876    
   0.00000000       0.00000000       49.1771287       49.5940965       49.7203346       49.6182796       49.7029510       49.7637535       49.5979105       49.5614891    
   49.7122230       49.6434316       49.3727902       49.1508004       49.3761409       49.4900346       49.1219109       49.0426345       49.4014641       49.1663880    
   49.0822423       49.1916581       48.9389589    
   0.00000000       0.00000000       48.5999949       48.9460826       49.1005996       49.1924665       49.2728056       49.2814217       49.1253292       49.0715794    
   49.0928921       49.0096661       48.9635802       48.6784586       48.7139843       48.5199709       48.4954918       48.3604930       48.1692703       47.9766086    
   47.7602516       47.6185786       47.4633673    
   0.00000000       0.00000000       47.5130990       48.0534102       48.2640861       48.5350426       48.6574886       48.5812717       48.5094174       48.4408321    
   48.3983784       48.3282496       48.1752587       48.0586117       47.7168694       47.6272797       47.4113240       47.2121403       47.0096582       46.6652620    
   46.2745396       46.0410362       45.7695582    
   0.00000000       0.00000000       46.3388422       46.7481384       47.2829423       47.7397651       47.9168926       47.8406633       47.7492222       47.6492226    
   47.5939490       47.5680761       47.2331753       47.1013722       46.9470091       46.7953751       46.3018043       46.1140475       45.8790759       45.3524301    
   45.1027414       45.0461672       44.8151014    
   0.00000000       0.00000000       45.4414591       45.9091469       46.2640515       46.6037285       47.0363997       47.0805247       46.9069335       46.7358528    
   46.6989135       46.7737026       46.5608775       46.4620029       46.0426627       45.8494017       45.6654066       44.7000000       44.7000000       44.7000000    
   44.7000000       44.8370496       44.8759810    
   0.00000000       0.00000000       44.8778639       44.9600126       45.4671994       45.9123469       46.1198789       46.4062205       46.0808476       45.6760902    
   45.6557547       45.8484567       46.0069669       45.7230661       45.5702727       45.2017461       44.7000000       44.7000000       44.7000000       44.7000000    
   44.7000000       44.8398161       44.8906416    
   0.00000000       0.00000000       44.7013120       44.7081730       44.8581773       45.2706101       45.6824489       45.5889665       45.3762275       44.9698786    
   44.9857792       45.2374242       45.4413015       45.2164056       44.7000000       44.7000000       44.7000000       44.7000000       44.7000000       44.7000000    
   44.7000000       44.7000000       44.7000000    
   0.00000000       0.00000000       44.5884888       44.6165254       44.5209792       44.6790872       45.1364770       45.3230345       45.1496888       44.7596337    
   44.7648058       45.0636531       45.1039552       44.8901640       44.7000000       44.7000000       44.7000000       44.7000000       44.7000000       44.7000000    
   44.7000000       44.7000000       44.7000000    
   0.00000000       0.00000000       43.9538250       44.1764815       44.0949479       44.0501658       44.7041074       44.7719428       44.9432294       44.9237054    
   44.8624650       44.8486751       44.8826968       44.7000000       44.7000000       44.7000000       44.7000000       44.7000000       44.7000000       44.7000000    
   44.7000000       44.7000000       44.7000000    
   0.00000000       0.00000000       42.4624809       43.0203588       42.8480570       43.4156049       43.5914339       44.5048071       44.9187280       44.7717673    
   45.0021937       44.8691869       44.7000000       44.7000000       44.7000000       44.7000000       44.7000000       44.7000000       44.7000000       44.7000000    
   44.7000000       44.7000000       44.7000000    
   0.00000000       40.0187919       40.1890490       41.2010853       41.7145109       41.8869785       42.1499745       42.7095565       43.5434116       44.0977324    
   44.7000000       44.7000000       44.7000000       44.7000000       44.7000000       44.7000000       44.7000000       44.7000000       44.7000000       44.7000000    
   44.7000000       44.7000000       44.7000000    
   0.00000000       38.0318327       38.3121717       38.5577088       38.7640495       39.2532850       39.7819894       41.1513620       42.1294643       43.0242059    
   44.7000000       44.7000000       44.7000000       44.7000000       44.7000000       44.7000000       44.7000000       44.7000000       44.7000000       44.7000000    
   44.7000000       44.7000000       44.7000000    
   0.00000000       37.0144809       37.2156862       37.4502402       37.6957353       37.9552979       38.7842291       39.7389830       40.7780210       41.8619603    
   43.4778816       44.7000000       44.7000000       44.7000000       44.7000000       44.7000000       44.7000000       44.7000000       44.7000000       44.7000000    
   44.7000000       44.7000000       44.7000000    
   0.00000000       35.9444953       36.4215938       36.6343108       36.8754464       37.1336434       37.3996415       38.2694964       39.3317557       40.4429304    
   41.7001872       43.3671819       44.1604980       44.7000000       44.7000000       44.7000000       44.7000000       44.7000000       44.7000000       44.7000000    
   44.7000000       44.7000000       44.7000000    
   0.00000000       35.5626843       35.6273852       35.7230947       36.2895228       36.5214773       36.7535614       36.9739108       37.8806673       39.0155847    
   40.3849886       42.3086503       43.2950815       43.6136789       44.2318334       44.7000000       44.7000000       44.7000000       44.7000000       44.7000000    
   44.7000000       44.7000000       44.7000000    
   0.00000000       35.3278000       35.3987003       35.4929286       35.5794350       35.6518006       35.7712665       35.9208101       36.7026380       37.7310353    
   38.2386422       41.7315845       42.8889144       43.2066563       43.6137799       44.2402785       44.4205613       44.5654723       44.6335955       44.6566794    
   44.6259093       44.6347490       44.6230289    
   0.00000000       35.2000000       35.2000000       35.2000000       35.2000000       35.2000000       35.2000000       35.6927454       35.8059884       36.6338249    
   37.7290214       39.6403899       41.5870066       42.1605905       43.1455528       43.5701051       43.9237153       44.2103233       44.4955386       44.6117701    
   44.5670746       44.6616663       44.4979127    
   0.00000000       35.3000000       35.2000000       35.2000000       35.2000000       35.2000000       35.2000000       35.2000000       35.2000000       36.3139945    
   36.7000326       38.3609606       39.6864180       40.9387244       42.0139416       42.5243920       43.0384452       43.7441502       44.0465693       44.1806676    
   44.2214052       44.2227251       44.0229809    
   0.00000000       35.3000000       35.2000000       35.2000000       35.2000000       35.2000000       35.2000000       35.2000000       35.2000000       35.6590725    
   36.3810305       37.2772684       38.9031961       39.5571242       40.6265988       41.5317328       42.0463650       42.5696113       42.9913380       43.3921269    
   43.4347725       43.3786248       43.2302451    
   0.00000000       35.3000000       35.3000000       35.2000000       35.2000000       35.2000000       35.2000000       35.2000000       35.2000000       35.2000000    
   36.0668598       36.7591351       37.6678509       38.6295396       39.4902217       39.8657399       40.6152629       41.1826611       41.6675857       41.8980181    
   42.0744165       41.9151920       41.8358140    
   0.00000000       35.3000000       35.3000000       35.3000000       35.2000000       35.2000000       35.2000000       35.2000000       35.2000000       35.2000000    
   35.7514315       35.9736463       36.6765329       37.4168101       37.9257470       38.2706624       38.5475218       39.4389322       40.0919889       40.2629852    
   39.9154794       39.4734359       39.6892914    
   35.3000000       35.3000000       35.3000000       35.3000000       35.3000000       35.2000000       35.2000000       35.2000000       35.2000000       35.2000000    
   35.3184541       35.6266386       36.2270306       36.8055498       36.9276971       36.4882163       36.6214496       37.6556419       38.6320263       38.7300599    
   37.8422265       36.8635465       37.1061259    
   35.3000000       35.3000000       35.3000000       35.3000000       35.3000000       35.2000000       35.2000000       35.2000000       35.2000000       35.2000000    
   35.1907894       35.2223088       35.5500848       35.9936900       36.0118387       35.5447689       35.3762761       36.2290611       37.3686286       37.4454145    
   36.5694468       35.3453076       35.6999181    
   35.3000000       35.3000000       35.3000000       35.3000000       35.2000000       35.2000000       35.2000000       35.2000000       35.2000000       35.1162638    
   35.1188289       34.9588701       35.0194273       35.6242064       35.5781181       35.3655889       35.3938022       35.9646974       36.6453737       36.7262667    
   36.1324260       35.5277315       35.7602048    
   35.3000000       35.3000000       35.2000000       35.2000000       35.2000000       35.2000000       35.2000000       34.9489946       34.9189873       34.7389262    
   34.7776481       34.6683558       34.3015722       34.6015840       35.0280862       35.4718369       35.3924572       35.7423078       35.9984655       36.5787350    
   36.3516110       36.1111361       36.2040792    
   35.3000000       35.3000000       35.2000000       35.2000000       35.2000000       35.2000000       34.8329724       34.7525422       34.3125109       34.2905901    
   34.2760522       33.9364527       33.8196006       34.1625304       34.0771870       34.2538191       35.1713527       35.5321409       35.6776481       35.7879267    
   35.8346357       36.3498709       36.4379080    
   35.1254837       35.1230959       34.9572036       34.7916975       34.6940043       34.1537261       34.0361805       33.4767015       33.3514835       33.3042589    
   33.2961394       33.2107630       33.1585639       32.8963873       33.3669684       33.5112906       33.9964770       34.4437547       35.1417264       35.2720771    
   35.3942813       35.5072908       36.2750470    
   34.9142400       34.8979327       34.4912601       34.1284872       33.7950813       33.5502699       32.8852851       32.6731553       32.5137471       32.4433657    
   32.0330108       32.0036787       31.7334645       31.8180147       32.5273663       32.6565517       33.1339112       33.2582855       33.7354291       34.5080808    
   34.6728413       34.4385983       34.5989497    
   34.9741137       34.2885843       33.4894848       32.9869804       33.0160985       32.3027415       31.9385724       31.6959503       31.5453325       31.1052647    
   31.0458258       31.0356365       30.8216663       30.9608955       31.0894637       31.7499208       31.8382315       32.1909425       32.3387268       32.4981632    
   32.8558677       33.0297040       34.1637879    
   34.2285369       32.9523432       31.8577809       31.6450822       31.3385519       30.9885457       30.8113943       30.5577034       30.2430173       30.1445290    
   30.0468629       29.8088444       29.9429885       30.1575689       30.3112853       30.4589445       30.3358484       31.2831451       31.4214851       31.8548396    
   32.0650490       32.3057952       33.1609105    
   28.0000000       28.0000000       28.0000000       28.0000000       30.3944857       30.0357932       29.3697973       29.3329207       29.3743277       29.3468855    
   29.1070814       28.9367492       29.1768641       29.4886703       29.6539244       29.5271262       29.6520931       30.2902590       30.4421164       30.4909349    
   30.9961351       31.2454773       31.5799263    
   28.0000000       28.0000000       28.0000000       28.0000000       28.0000000       28.0000000       28.0000000       28.0000000       28.0000000       28.0000000    
   28.0000000       28.2620923       28.6351477       29.0231951       29.0240126       28.9435067       28.9563502       29.1488530       29.5891568       29.6326628    
   29.9839640       30.2114667       30.6023007    
   0.00000000       0.00000000       0.00000000       0.00000000       0.00000000       0.00000000       0.00000000       28.0000000       28.0000000       28.0000000    
   28.0000000       28.0000000       28.0000000       28.0000000       28.0000000       28.0000000       28.0000000       28.0000000       28.0000000       29.0238345    
   28.9896894       29.2703776       29.7306051    
   0.00000000       0.00000000       0.00000000       0.00000000       0.00000000       0.00000000       0.00000000       0.00000000       0.00000000       0.00000000    
   0.00000000       0.00000000       0.00000000       28.0000000       28.0000000       28.0000000       28.0000000       28.0000000       28.0000000       28.0000000    
   28.0000000       28.0000000       28.0000000    
   0.00000000       0.00000000       0.00000000       0.00000000       0.00000000       0.00000000       0.00000000       0.00000000       0.00000000       0.00000000    
   0.00000000       0.00000000       0.00000000       0.00000000       0.00000000       0.00000000       0.00000000       0.00000000       0.00000000       0.00000000    
   28.0000000       28.0000000       28.0000000    
    INTERNAL  FACTOR    1.00000000      IPRN  2    Initial head for layer 3
   0.00000000       0.00000000       0.00000000       50.0000000       50.0000000       50.0000000       50.0000000       50.0000000       50.0000000       50.0000000    
   50.0000000       50.0500000       50.1000000       50.1000000       50.0500000       50.0000000       50.0000000       50.0000000       50.0000000       50.0000000    
   50.0000000       49.9407669       49.6398876    
   0.00000000       0.00000000       49.1771287       49.5940965       49.7203346       49.6182796       49.7029510       49.7637535       49.5979105       49.5614891    
   49.7122230       49.6434316       49.3727902       49.1508004       49.3761409       49.4900346       49.1219109       49.0426345       49.4014641       49.1663880    
   49.0822423       49.1916581       48.9389589    
   0.00000000       0.00000000       48.5999949       48.9460826       49.1005996       49.1924665       49.2728056       49.2814217       49.1253292       49.0715794    
   49.0928921       49.0096661       48.9635802       48.6784586       48.7139843       48.5199709       48.4954918       48.3604930       48.1692703       47.9766086    
   47.7602516       47.6185786       47.4633673    