BEGIN OPTIONS
  #NONE
  LENGTH_UNITS METERS
END OPTIONS

BEGIN DIMENSIONS
  NLAY 2
  NROW 101
  NCOL 101
END DIMENSIONS

BEGIN GRIDDATA
  delr
    CONSTANT   142.  DELR
  delc
    CONSTANT   142.  DELC
  top LAYERED
    CONSTANT -50.    MODEL TOP
  botm LAYERED
    CONSTANT -142.9  MODEL BOTTOM LAYER 1
    CONSTANT -514.9  MODEL BOTTOM LAYER 2
  idomain LAYERED
    open/close idomain.ref FACTOR  1  IPRN -1
    open/close idomain.ref FACTOR  1  IPRN -1
    
END GRIDDATA




