BEGIN OPTIONS
  HEAD FILEOUT NT_Transient.hds
  BUDGET FILEOUT NT_Transient.cbc
END OPTIONS

BEGIN PERIOD 1
  PRINT BUDGET steps 1 50
  SAVE BUDGET FREQUENCY 1
  SAVE HEAD FREQUENCY 1
END PERIOD

BEGIN PERIOD 2
  PRINT BUDGET steps 1 10
  SAVE BUDGET FREQUENCY 1
  SAVE HEAD FREQUENCY 1
END PERIOD

BEGIN PERIOD 3
  PRINT BUDGET steps 1 50
  SAVE BUDGET FREQUENCY 1
  SAVE HEAD FREQUENCY 1
END PERIOD
