BEGIN OPTIONS
  TIME_UNITS DAYS
END OPTIONS

BEGIN DIMENSIONS
  NPER 3
END DIMENSIONS

BEGIN PERIODDATA
 #perlen nstp  tsmult
 2.314815   50     1.2
 2.685185   10     1.0
10.000000   50     1.2 
END PERIODDATA
