BEGIN OPTIONS
  SAVE_FLOWS
END OPTIONS

BEGIN GRIDDATA
  ICELLTYPE
    CONSTANT 0
  K
    CONSTANT 10.
  K33
    CONSTANT 1.
  K22
    CONSTANT 1.
  ANGLE1
    CONSTANT 90.
END GRIDDATA
