# SFR6 input file, prepared by MF5to6 on 6/5/2017 at 16:11:43.

BEGIN Options
  PRINT_STAGE
  PRINT_FLOWS
  MAXIMUM_DEPTH_CHANGE   0.10000000E-03
  UNIT_CONVERSION    1.4860000 
  OBS6 FILEIN mf6.sfr.obs   
END Options

BEGIN Dimensions
  NREACHES  36
END Dimensions

BEGIN PACKAGEDATA
  # rno cellid rlen           rwid            rgrd            rbtp            rbth            rbhk             man       ncon  ustrf  ndv
  1 1 1 1    4500.000        12.00000       0.8676790E-03    1093.048        3.000000       0.3000000E-04   0.3000000E-01  1  1.0000  0
  2 1 2 2    7000.000        12.00000       0.8676790E-03    1088.059        3.000000       0.3000000E-04   0.3000000E-01  2  1.0000  0
  3 1 3 3    6000.000        12.00000       0.8676790E-03    1082.419        3.000000       0.3000000E-04   0.3000000E-01  2  1.0000  0
  4 1 3 4    5550.000        12.00000       0.8676790E-03    1077.408        3.000000       0.3000000E-04   0.3000000E-01  3  1.0000  1
  5 1 4 5    6500.000        12.00000       0.9433962E-03    1071.934        3.000000       0.3000000E-04   0.3000000E-01  2  1.0000  0
  6 1 5 6    5000.000        12.00000       0.9433962E-03    1066.509        3.000000       0.3000000E-04   0.3000000E-01  2  1.0000  0
  7 1 6 6    5000.000        12.00000       0.9433962E-03    1061.792        3.000000       0.3000000E-04   0.3000000E-01  2  1.0000  0
  8 1 7 6    5000.000        12.00000       0.9433962E-03    1057.075        3.000000       0.3000000E-04   0.3000000E-01  2  1.0000  0
  9 1 8 6    5000.000        12.00000       0.9433962E-03    1052.359        3.000000       0.3000000E-04   0.3000000E-01  2  1.0000  0
  10 1 3 5    5000.000        9.636364       0.5454546E-03    1073.636        2.000000       0.3000000E-04   0.3000000E-01  2  0.0000  0
  11 1 3 6    5000.000        8.909091       0.5454546E-03    1070.909        2.000000       0.3000000E-04   0.3000000E-01  2  1.0000  0
  12 1 3 7    4500.000        8.218182       0.5454546E-03    1068.318        2.000000       0.3000000E-04   0.3000000E-01  2  1.0000  0
  13 1 4 8    6000.000        7.454545       0.5454546E-03    1065.455        2.000000       0.3000000E-04   0.3000000E-01  2  1.0000  0
  14 1 5 8    5000.000        6.654546       0.5454546E-03    1062.455        2.000000       0.3000000E-04   0.3000000E-01  2  1.0000  0
  15 1 6 8    2000.000        6.145454       0.5454546E-03    1060.545        2.000000       0.3000000E-04   0.3000000E-01  2  1.0000  0
  16 1 5 10    2500.000        10.00000       0.1818182E-02    1077.727        3.000000       0.3000000E-04   0.3000000E-01  1  1.0000  0
  17 1 5 9    5000.000        10.00000       0.1818182E-02    1070.909        3.000000       0.3000000E-04   0.3000000E-01  2  1.0000  0
  18 1 6 8    3500.000        10.00000       0.1818182E-02    1063.182        3.000000       0.3000000E-04   0.3000000E-01  2  1.0000  0
  19 1 6 8    4000.000        15.00000       0.1000000E-02    1058.000        3.000000       0.3000000E-04   0.3000000E-01  3  1.0000  0
  20 1 7 7    5000.000        15.00000       0.1000000E-02    1053.500        3.000000       0.3000000E-04   0.3000000E-01  2  1.0000  0
  21 1 8 7    3500.000        15.00000       0.1000000E-02    1049.250        3.000000       0.3000000E-04   0.3000000E-01  2  1.0000  0
  22 1 8 6    2500.000        15.00000       0.1000000E-02    1046.250        3.000000       0.3000000E-04   0.3000000E-01  2  1.0000  0
  23 1 9 6    5000.000        12.00000       0.9090909E-03    1042.727        3.000000       0.3000000E-04   0.3000000E-01  3  1.0000  0
  24 1 10 7    5000.000        12.00000       0.9090909E-03    1038.182        3.000000       0.3000000E-04   0.3000000E-01  2  1.0000  0
  25 1 11 7    5000.000        12.00000       0.9090909E-03    1033.636        3.000000       0.3000000E-04   0.3000000E-01  2  1.0000  0
  26 1 12 7    5000.000        12.00000       0.9090909E-03    1029.091        3.000000       0.3000000E-04   0.3000000E-01  2  1.0000  0
  27 1 13 7    2000.000        12.00000       0.9090909E-03    1025.909        3.000000       0.3000000E-04   0.3000000E-01  2  1.0000  0
  28 1 14 9    5000.000        55.00000       0.9677419E-03    1037.581        3.000000       0.6000000E-04   0.2500000E-01  1  1.0000  0
  29 1 13 8    5500.000        55.00000       0.9677419E-03    1032.500        3.000000       0.6000000E-04   0.2500000E-01  2  1.0000  0
  30 1 13 7    5000.000        55.00000       0.9677419E-03    1027.419        3.000000       0.6000000E-04   0.2500000E-01  2  1.0000  0
  31 1 13 6    5000.000        40.00000       0.1250000E-02    1021.875        3.000000       0.6000000E-04   0.2500000E-01  3  1.0000  0
  32 1 13 5    5000.000        40.00000       0.1250000E-02    1015.625        3.000000       0.6000000E-04   0.2500000E-01  2  1.0000  0
  33 1 13 4    5000.000        40.00000       0.1250000E-02    1009.375        3.000000       0.6000000E-04   0.2500000E-01  2  1.0000  0
  34 1 13 3    5000.000        40.00000       0.1250000E-02    1003.125        3.000000       0.6000000E-04   0.2500000E-01  2  1.0000  0
  35 1 13 2    5000.000        40.00000       0.1250000E-02    996.8750        3.000000       0.6000000E-04   0.2500000E-01  2  1.0000  0
  36 1 13 1    3000.000        40.00000       0.1250000E-02    991.8750        3.000000       0.6000000E-04   0.2500000E-01  1  1.0000  0
END PACKAGEDATA

BEGIN CONNECTIONDATA
  1 -2
  2 1 -3
  3 2 -4
  4 3 -5 -10
  5 4 -6
  6 5 -7
  7 6 -8
  8 7 -9
  9 8 -23
  10 4 -11
  11 10 -12
  12 11 -13
  13 12 -14
  14 13 -15
  15 14 -19
  16 -17
  17 16 -18
  18 17 -19
  19 15 18 -20
  20 19 -21
  21 20 -22
  22 21 -23
  23 9 22 -24
  24 23 -25
  25 24 -26
  26 25 -27
  27 26 -31
  28 -29
  29 28 -30
  30 29 -31
  31 27 30 -32
  32 31 -33
  33 32 -34
  34 33 -35
  35 34 -36
  36 35
END CONNECTIONDATA

BEGIN DIVERSIONS
# ireach idivno ireach2 cprior
       4      1      10 UPTO
END DIVERSIONS

BEGIN PERIOD 1
   1 inflow   25.000000
  16 inflow   10.000000
  28 inflow   150.00000
   4 diversion 1 10.
  10 status simple
  11 status simple
  12 status simple
  13 status simple
  14 status simple
  15 status simple
  10 stage 1075.545454545450
  11 stage 1072.636363636360
  12 stage 1069.872727272730
  13 stage 1066.818181818180
  14 stage 1063.618181818180
  15 stage 1061.581818181820
END PERIOD
