# NPF6 input file, prepared by MF5to6 on 6/5/2017 at 16:11:43.

BEGIN Options
  PERCHED
  VARIABLECV  DEWATERED
END Options

BEGIN GRIDDATA
  Icelltype LAYERED
    CONSTANT  1
  K  LAYERED
    INTERNAL  FACTOR  1.0  IPRN   12
  0.2000000E-02  0.2000000E-02   0.000000       0.000000       0.000000       0.000000       0.000000       0.000000       0.000000       0.000000    
  0.4000000E-03  0.2000000E-02  0.2000000E-02   0.000000       0.000000      0.4000000E-03  0.4000000E-03  0.4000000E-03   0.000000       0.000000    
   0.000000      0.4000000E-03  0.2000000E-02  0.2000000E-02  0.4000000E-03  0.4000000E-03  0.4000000E-03  0.4000000E-03   0.000000       0.000000    
  0.4000000E-03  0.4000000E-03  0.4000000E-03  0.2000000E-02  0.2000000E-02  0.2000000E-02  0.4000000E-03  0.4000000E-03  0.4000000E-03   0.000000    
  0.4000000E-03  0.4000000E-03  0.4000000E-03  0.2000000E-02  0.2000000E-02  0.2000000E-02  0.2000000E-02  0.2000000E-02  0.2000000E-02  0.2000000E-02
  0.4000000E-03  0.4000000E-03  0.4000000E-03  0.2000000E-02  0.2000000E-02  0.2000000E-02  0.2000000E-02  0.2000000E-02  0.4000000E-03  0.4000000E-03
  0.4000000E-03  0.4000000E-03  0.4000000E-03  0.2000000E-02  0.2000000E-02  0.2000000E-02  0.2000000E-02  0.2000000E-02  0.4000000E-03   0.000000    
   0.000000      0.4000000E-03  0.4000000E-03  0.2000000E-02  0.2000000E-02  0.2000000E-02  0.2000000E-02  0.4000000E-03  0.4000000E-03   0.000000    
   0.000000      0.4000000E-03  0.4000000E-03  0.2000000E-02  0.2000000E-02  0.2000000E-02  0.2000000E-02  0.4000000E-03  0.4000000E-03   0.000000    
   0.000000      0.4000000E-03  0.4000000E-03  0.2000000E-02  0.2000000E-02  0.2000000E-02  0.2000000E-02  0.4000000E-03  0.4000000E-03  0.4000000E-03
   0.000000      0.4000000E-03  0.4000000E-03  0.2000000E-02  0.2000000E-02  0.2000000E-02  0.2000000E-02  0.4000000E-03  0.4000000E-03   0.000000    
  0.4000000E-03  0.4000000E-03  0.2000000E-02  0.2000000E-02  0.2000000E-02  0.2000000E-02  0.2000000E-02  0.4000000E-03  0.4000000E-03   0.000000    
  0.2000000E-02  0.2000000E-02  0.2000000E-02  0.2000000E-02  0.2000000E-02  0.2000000E-02  0.2000000E-02  0.2000000E-02  0.2000000E-02   0.000000    
   0.000000      0.4000000E-03  0.4000000E-03  0.4000000E-03  0.4000000E-03  0.4000000E-03  0.4000000E-03  0.4000000E-03  0.2000000E-02   0.000000    
   0.000000       0.000000      0.4000000E-03  0.4000000E-03  0.4000000E-03  0.4000000E-03   0.000000       0.000000       0.000000       0.000000    
END GRIDDATA
