# Simulation name file for MODFLOW 6 prepared by MF5to6

BEGIN Options
END Options

BEGIN TIMING
  TDIS6  mf6.tdis6
END TIMING

BEGIN MODELS
  GWF6  mf6.nam  mf6
END MODELS

BEGIN EXCHANGES
END EXCHANGES

BEGIN SOLUTIONGROUP 1
  MXITER  1
  IMS6  mf6.ims6  mf6
END SOLUTIONGROUP
