BEGIN griddata
  strt
    CONSTANT       1.00000000
END griddata

