BEGIN options
  HHFORMULATION
END options

