BEGIN options
  auxiliary  CONCENTRATION
  PRINT_INPUT
  PRINT_FLOWS
END options

BEGIN dimensions
  MAXBOUND  40
END dimensions

BEGIN period  1
  1 1 1       0.14256000       0.00000000
  2 1 1       0.14256000       0.00000000
  3 1 1       0.14256000       0.00000000
  4 1 1       0.14256000       0.00000000
  5 1 1       0.14256000       0.00000000
  6 1 1       0.14256000       0.00000000
  7 1 1       0.14256000       0.00000000
  8 1 1       0.14256000       0.00000000
  9 1 1       0.14256000       0.00000000
  10 1 1       0.14256000       0.00000000
  11 1 1       0.14256000       0.00000000
  12 1 1       0.14256000       0.00000000
  13 1 1       0.14256000       0.00000000
  14 1 1       0.14256000       0.00000000
  15 1 1       0.14256000       0.00000000
  16 1 1       0.14256000       0.00000000
  17 1 1       0.14256000       0.00000000
  18 1 1       0.14256000       0.00000000
  19 1 1       0.14256000       0.00000000
  20 1 1       0.14256000       0.00000000
  21 1 1       0.14256000       0.00000000
  22 1 1       0.14256000       0.00000000
  23 1 1       0.14256000       0.00000000
  24 1 1       0.14256000       0.00000000
  25 1 1       0.14256000       0.00000000
  26 1 1       0.14256000       0.00000000
  27 1 1       0.14256000       0.00000000
  28 1 1       0.14256000       0.00000000
  29 1 1       0.14256000       0.00000000
  30 1 1       0.14256000       0.00000000
  31 1 1       0.14256000       0.00000000
  32 1 1       0.14256000       0.00000000
  33 1 1       0.14256000       0.00000000
  34 1 1       0.14256000       0.00000000
  35 1 1       0.14256000       0.00000000
  36 1 1       0.14256000       0.00000000
  37 1 1       0.14256000       0.00000000
  38 1 1       0.14256000       0.00000000
  39 1 1       0.14256000       0.00000000
  40 1 1       0.14256000       0.00000000
END period  1

