BEGIN options
END options

BEGIN griddata
  porosity
    CONSTANT       0.35000000
END griddata

