BEGIN options
END options

BEGIN dimensions
  NLAY  40
  NROW  1
  NCOL  80
END dimensions

BEGIN griddata
  delr
    CONSTANT       0.02500000
  delc
    CONSTANT       1.00000000
  top
    CONSTANT       1.00000000
  botm  LAYERED
    CONSTANT       0.97500000
    CONSTANT       0.95000000
    CONSTANT       0.92500000
    CONSTANT       0.90000000
    CONSTANT       0.87500000
    CONSTANT       0.85000000
    CONSTANT       0.82500000
    CONSTANT       0.80000000
    CONSTANT       0.77500000
    CONSTANT       0.75000000
    CONSTANT       0.72500000
    CONSTANT       0.70000000
    CONSTANT       0.67500000
    CONSTANT       0.65000000
    CONSTANT       0.62500000
    CONSTANT       0.60000000
    CONSTANT       0.57500000
    CONSTANT       0.55000000
    CONSTANT       0.52500000
    CONSTANT       0.50000000
    CONSTANT       0.47500000
    CONSTANT       0.45000000
    CONSTANT       0.42500000
    CONSTANT       0.40000000
    CONSTANT       0.37500000
    CONSTANT       0.35000000
    CONSTANT       0.32500000
    CONSTANT       0.30000000
    CONSTANT       0.27500000
    CONSTANT       0.25000000
    CONSTANT       0.22500000
    CONSTANT       0.20000000
    CONSTANT       0.17500000
    CONSTANT       0.15000000
    CONSTANT       0.12500000
    CONSTANT       0.10000000
    CONSTANT       0.07500000
    CONSTANT       0.05000000
    CONSTANT       0.02500000
    CONSTANT       0.00000000
END griddata

