# NPF8 input file, prepared by MF5to6 on 2/25/2016 at 16:36:36.

BEGIN Options
  REWET WETFCT 1.0 IWETIT 1 IHDWET 0
END Options

BEGIN GRIDDATA
  Icelltype LAYERED
    CONSTANT  1
    CONSTANT  1
    CONSTANT  1
    CONSTANT  1
    CONSTANT  1
  k  LAYERED
    CONSTANT    30.0000000    
    CONSTANT    30.0000000    
    CONSTANT    30.0000000    
    CONSTANT    30.0000000    
    CONSTANT    30.0000000    
  K33  LAYERED
    CONSTANT  1179.0000000    
    CONSTANT    30.0000000    
    CONSTANT    30.0000000    
    CONSTANT    30.0000000    
    CONSTANT    30.0000000    
  WETDRY LAYERED
    INTERNAL  FACTOR  1.0  IPRN  12
   0.00000000       0.00000000       0.00000000       0.00000000       0.00000000       0.00000000       0.00000000       0.00000000       0.00000000       0.00000000    
   0.00000000       0.00000000       0.00000000       0.00000000       0.00000000       0.00000000       0.00000000    
   0.00000000     -0.200000000     -0.200000000     -0.200000000     -0.200000000     -0.200000000     -0.200000000     -0.200000000     -0.200000000     -0.200000000    
 -0.200000000     -0.200000000     -0.200000000     -0.200000000     -0.200000000     -0.200000000       0.00000000    
   0.00000000     -0.200000000     -0.200000000     -0.200000000     -0.200000000     -0.200000000     -0.200000000     -0.200000000     -0.200000000     -0.200000000    
 -0.200000000     -0.200000000     -0.200000000     -0.200000000     -0.200000000     -0.200000000       0.00000000    
   0.00000000     -0.200000000     -0.200000000     -0.200000000     -0.200000000     -0.200000000     -0.200000000     -0.200000000     -0.200000000     -0.200000000    
 -0.200000000     -0.200000000     -0.200000000     -0.200000000     -0.200000000     -0.200000000       0.00000000    
   0.00000000     -0.200000000     -0.200000000     -0.200000000     -0.200000000     -0.200000000     -0.200000000     -0.200000000     -0.200000000     -0.200000000    
 -0.200000000     -0.200000000     -0.200000000     -0.200000000     -0.200000000     -0.200000000       0.00000000    
   0.00000000     -0.200000000     -0.200000000     -0.200000000     -0.200000000     -0.200000000     -0.200000000     -0.200000000     -0.200000000     -0.200000000    
 -0.200000000     -0.200000000     -0.200000000     -0.200000000     -0.200000000     -0.200000000       0.00000000    
   0.00000000     -0.200000000     -0.200000000     -0.200000000     -0.200000000     -0.200000000       0.00000000       0.00000000       0.00000000       0.00000000    
   0.00000000     -0.200000000     -0.200000000     -0.200000000     -0.200000000     -0.200000000       0.00000000    
   0.00000000     -0.200000000     -0.200000000     -0.200000000     -0.200000000     -0.200000000       0.00000000       0.00000000       0.00000000       0.00000000    
   0.00000000     -0.200000000     -0.200000000     -0.200000000     -0.200000000     -0.200000000       0.00000000    
   0.00000000     -0.200000000     -0.200000000     -0.200000000     -0.200000000     -0.200000000       0.00000000       0.00000000       0.00000000       0.00000000    
   0.00000000     -0.200000000     -0.200000000     -0.200000000     -0.200000000     -0.200000000       0.00000000    
   0.00000000     -0.200000000     -0.200000000     -0.200000000     -0.200000000     -0.200000000       0.00000000       0.00000000       0.00000000       0.00000000    
   0.00000000     -0.200000000     -0.200000000     -0.200000000     -0.200000000     -0.200000000       0.00000000    
   0.00000000     -0.200000000     -0.200000000     -0.200000000     -0.200000000     -0.200000000       0.00000000       0.00000000       0.00000000       0.00000000    
   0.00000000     -0.200000000     -0.200000000     -0.200000000     -0.200000000     -0.200000000       0.00000000    
   0.00000000     -0.200000000     -0.200000000     -0.200000000     -0.200000000     -0.200000000     -0.200000000     -0.200000000     -0.200000000     -0.200000000    
 -0.200000000     -0.200000000     -0.200000000     -0.200000000     -0.200000000     -0.200000000       0.00000000    
   0.00000000     -0.200000000     -0.200000000     -0.200000000     -0.200000000     -0.200000000     -0.200000000     -0.200000000     -0.200000000     -0.200000000    
 -0.200000000     -0.200000000     -0.200000000     -0.200000000     -0.200000000     -0.200000000       0.00000000    
   0.00000000     -0.200000000     -0.200000000     -0.200000000     -0.200000000     -0.200000000     -0.200000000     -0.200000000     -0.200000000     -0.200000000    
 -0.200000000     -0.200000000     -0.200000000     -0.200000000     -0.200000000     -0.200000000       0.00000000    
   0.00000000     -0.200000000     -0.200000000     -0.200000000     -0.200000000     -0.200000000     -0.200000000     -0.200000000     -0.200000000     -0.200000000    
 -0.200000000     -0.200000000     -0.200000000     -0.200000000     -0.200000000     -0.200000000       0.00000000    
   0.00000000     -0.200000000     -0.200000000     -0.200000000     -0.200000000     -0.200000000     -0.200000000     -0.200000000     -0.200000000     -0.200000000    
 -0.200000000     -0.200000000     -0.200000000     -0.200000000     -0.200000000     -0.200000000       0.00000000    
   0.00000000       0.00000000       0.00000000       0.00000000       0.00000000       0.00000000       0.00000000       0.00000000       0.00000000       0.00000000    
   0.00000000       0.00000000       0.00000000       0.00000000       0.00000000       0.00000000       0.00000000    
    INTERNAL  FACTOR  1.0  IPRN  12
   0.00000000       0.00000000       0.00000000       0.00000000       0.00000000       0.00000000       0.00000000       0.00000000       0.00000000       0.00000000    
   0.00000000       0.00000000       0.00000000       0.00000000       0.00000000       0.00000000       0.00000000    
   0.00000000     -0.200000000     -0.200000000     -0.200000000     -0.200000000     -0.200000000     -0.200000000     -0.200000000     -0.200000000     -0.200000000    
 -0.200000000     -0.200000000     -0.200000000     -0.200000000     -0.200000000     -0.200000000       0.00000000    
   0.00000000     -0.200000000     -0.200000000     -0.200000000     -0.200000000     -0.200000000     -0.200000000     -0.200000000     -0.200000000     -0.200000000    
 -0.200000000     -0.200000000     -0.200000000     -0.200000000     -0.200000000     -0.200000000       0.00000000    
   0.00000000     -0.200000000     -0.200000000     -0.200000000     -0.200000000     -0.200000000     -0.200000000     -0.200000000     -0.200000000     -0.200000000    
 -0.200000000     -0.200000000     -0.200000000     -0.200000000     -0.200000000     -0.200000000       0.00000000    
   0.00000000     -0.200000000     -0.200000000     -0.200000000     -0.200000000     -0.200000000     -0.200000000     -0.200000000     -0.200000000     -0.200000000    
 -0.200000000     -0.200000000     -0.200000000     -0.200000000     -0.200000000     -0.200000000       0.00000000    
   0.00000000     -0.200000000     -0.200000000     -0.200000000     -0.200000000     -0.200000000     -0.200000000     -0.200000000     -0.200000000     -0.200000000    
 -0.200000000     -0.200000000     -0.200000000     -0.200000000     -0.200000000     -0.200000000       0.00000000    
   0.00000000     -0.200000000     -0.200000000     -0.200000000     -0.200000000     -0.200000000     -0.200000000     -0.200000000     -0.200000000     -0.200000000    
 -0.200000000     -0.200000000     -0.200000000     -0.200000000     -0.200000000     -0.200000000       0.00000000    
   0.00000000     -0.200000000     -0.200000000     -0.200000000     -0.200000000     -0.200000000     -0.200000000       0.00000000       0.00000000       0.00000000    
 -0.200000000     -0.200000000     -0.200000000     -0.200000000     -0.200000000     -0.200000000       0.00000000    
   0.00000000     -0.200000000     -0.200000000     -0.200000000     -0.200000000     -0.200000000     -0.200000000       0.00000000       0.00000000       0.00000000    
 -0.200000000     -0.200000000     -0.200000000     -0.200000000     -0.200000000     -0.200000000       0.00000000    
   0.00000000     -0.200000000     -0.200000000     -0.200000000     -0.200000000     -0.200000000     -0.200000000       0.00000000       0.00000000       0.00000000    
 -0.200000000     -0.200000000     -0.200000000     -0.200000000     -0.200000000     -0.200000000       0.00000000    
   0.00000000     -0.200000000     -0.200000000     -0.200000000     -0.200000000     -0.200000000     -0.200000000     -0.200000000     -0.200000000     -0.200000000    
 -0.200000000     -0.200000000     -0.200000000     -0.200000000     -0.200000000     -0.200000000       0.00000000    
   0.00000000     -0.200000000     -0.200000000     -0.200000000     -0.200000000     -0.200000000     -0.200000000     -0.200000000     -0.200000000     -0.200000000    
 -0.200000000     -0.200000000     -0.200000000     -0.200000000     -0.200000000     -0.200000000       0.00000000    
   0.00000000     -0.200000000     -0.200000000     -0.200000000     -0.200000000     -0.200000000     -0.200000000     -0.200000000     -0.200000000     -0.200000000    
 -0.200000000     -0.200000000     -0.200000000     -0.200000000     -0.200000000     -0.200000000       0.00000000    
   0.00000000     -0.200000000     -0.200000000     -0.200000000     -0.200000000     -0.200000000     -0.200000000     -0.200000000     -0.200000000     -0.200000000    
 -0.200000000     -0.200000000     -0.200000000     -0.200000000     -0.200000000     -0.200000000       0.00000000    
   0.00000000     -0.200000000     -0.200000000     -0.200000000     -0.200000000     -0.200000000     -0.200000000     -0.200000000     -0.200000000     -0.200000000    
 -0.200000000     -0.200000000     -0.200000000     -0.200000000     -0.200000000     -0.200000000       0.00000000    
   0.00000000     -0.200000000     -0.200000000     -0.200000000     -0.200000000     -0.200000000     -0.200000000     -0.200000000     -0.200000000     -0.200000000    
 -0.200000000     -0.200000000     -0.200000000     -0.200000000     -0.200000000     -0.200000000       0.00000000    
   0.00000000       0.00000000       0.00000000       0.00000000       0.00000000       0.00000000       0.00000000       0.00000000       0.00000000       0.00000000    
   0.00000000       0.00000000       0.00000000       0.00000000       0.00000000       0.00000000       0.00000000    
    INTERNAL  FACTOR  1.0  IPRN  12
   0.00000000       0.00000000       0.00000000       0.00000000       0.00000000       0.00000000       0.00000000       0.00000000       0.00000000       0.00000000    
   0.00000000       0.00000000       0.00000000       0.00000000       0.00000000       0.00000000       0.00000000    
   0.00000000     -0.200000000     -0.200000000     -0.200000000     -0.200000000     -0.200000000     -0.200000000     -0.200000000     -0.200000000     -0.200000000    
 -0.200000000     -0.200000000     -0.200000000     -0.200000000     -0.200000000     -0.200000000       0.00000000    
   0.00000000     -0.200000000     -0.200000000     -0.200000000     -0.200000000     -0.200000000     -0.200000000     -0.200000000     -0.200000000     -0.200000000    
 -0.200000000     -0.200000000     -0.200000000     -0.200000000     -0.200000000     -0.200000000       0.00000000    
   0.00000000     -0.200000000     -0.200000000     -0.200000000     -0.200000000     -0.200000000     -0.200000000     -0.200000000     -0.200000000     -0.200000000    
 -0.200000000     -0.200000000     -0.200000000     -0.200000000     -0.200000000     -0.200000000       0.00000000    
   0.00000000     -0.200000000     -0.200000000     -0.200000000     -0.200000000     -0.200000000     -0.200000000     -0.200000000     -0.200000000     -0.200000000    
 -0.200000000     -0.200000000     -0.200000000     -0.200000000     -0.200000000     -0.200000000       0.00000000    
   0.00000000     -0.200000000     -0.200000000     -0.200000000     -0.200000000     -0.200000000     -0.200000000     -0.200000000     -0.200000000     -0.200000000    
 -0.200000000     -0.200000000     -0.200000000     -0.200000000     -0.200000000     -0.200000000       0.00000000    
   0.00000000     -0.200000000     -0.200000000     -0.200000000     -0.200000000     -0.200000000     -0.200000000     -0.200000000     -0.200000000     -0.200000000    
 -0.200000000     -0.200000000     -0.200000000     -0.200000000     -0.200000000     -0.200000000       0.00000000    
   0.00000000     -0.200000000     -0.200000000     -0.200000000     -0.200000000     -0.200000000     -0.200000000     -0.200000000     -0.200000000     -0.200000000    
 -0.200000000     -0.200000000     -0.200000000     -0.200000000     -0.200000000     -0.200000000       0.00000000    
   0.00000000     -0.200000000     -0.200000000     -0.200000000     -0.200000000     -0.200000000     -0.200000000     -0.200000000     -0.200000000     -0.200000000    
 -0.200000000     -0.200000000     -0.200000000     -0.200000000     -0.200000000     -0.200000000       0.00000000    
   0.00000000     -0.200000000     -0.200000000     -0.200000000     -0.200000000     -0.200000000     -0.200000000     -0.200000000     -0.200000000     -0.200000000    
 -0.200000000     -0.200000000     -0.200000000     -0.200000000     -0.200000000     -0.200000000       0.00000000    
   0.00000000     -0.200000000     -0.200000000     -0.200000000     -0.200000000     -0.200000000     -0.200000000     -0.200000000     -0.200000000     -0.200000000    
 -0.200000000     -0.200000000     -0.200000000     -0.200000000     -0.200000000     -0.200000000       0.00000000    
   0.00000000     -0.200000000     -0.200000000     -0.200000000     -0.200000000     -0.200000000     -0.200000000     -0.200000000     -0.200000000     -0.200000000    
 -0.200000000     -0.200000000     -0.200000000     -0.200000000     -0.200000000     -0.200000000       0.00000000    
   0.00000000     -0.200000000     -0.200000000     -0.200000000     -0.200000000     -0.200000000     -0.200000000     -0.200000000     -0.200000000     -0.200000000    
 -0.200000000     -0.200000000     -0.200000000     -0.200000000     -0.200000000     -0.200000000       0.00000000    
   0.00000000     -0.200000000     -0.200000000     -0.200000000     -0.200000000     -0.200000000     -0.200000000     -0.200000000     -0.200000000     -0.200000000    
 -0.200000000     -0.200000000     -0.200000000     -0.200000000     -0.200000000     -0.200000000       0.00000000    
   0.00000000     -0.200000000     -0.200000000     -0.200000000     -0.200000000     -0.200000000     -0.200000000     -0.200000000     -0.200000000     -0.200000000    
 -0.200000000     -0.200000000     -0.200000000     -0.200000000     -0.200000000     -0.200000000       0.00000000    
   0.00000000     -0.200000000     -0.200000000     -0.200000000     -0.200000000     -0.200000000     -0.200000000     -0.200000000     -0.200000000     -0.200000000    
 -0.200000000     -0.200000000     -0.200000000     -0.200000000     -0.200000000     -0.200000000       0.00000000    
   0.00000000       0.00000000       0.00000000       0.00000000       0.00000000       0.00000000       0.00000000       0.00000000       0.00000000       0.00000000    
   0.00000000       0.00000000       0.00000000       0.00000000       0.00000000       0.00000000       0.00000000    
    INTERNAL  FACTOR  1.0  IPRN  12
   0.00000000       0.00000000       0.00000000       0.00000000       0.00000000       0.00000000       0.00000000       0.00000000       0.00000000       0.00000000    
   0.00000000       0.00000000       0.00000000       0.00000000       0.00000000       0.00000000       0.00000000    
   0.00000000     -0.200000000     -0.200000000     -0.200000000     -0.200000000     -0.200000000     -0.200000000     -0.200000000     -0.200000000     -0.200000000    
 -0.200000000     -0.200000000     -0.200000000     -0.200000000     -0.200000000     -0.200000000       0.00000000    
   0.00000000     -0.200000000     -0.200000000     -0.200000000     -0.200000000     -0.200000000     -0.200000000     -0.200000000     -0.200000000     -0.200000000    
 -0.200000000     -0.200000000     -0.200000000     -0.200000000     -0.200000000     -0.200000000       0.00000000    
   0.00000000     -0.200000000     -0.200000000     -0.200000000     -0.200000000     -0.200000000     -0.200000000     -0.200000000     -0.200000000     -0.200000000    
 -0.200000000     -0.200000000     -0.200000000     -0.200000000     -0.200000000     -0.200000000       0.00000000    
   0.00000000     -0.200000000     -0.200000000     -0.200000000     -0.200000000     -0.200000000     -0.200000000     -0.200000000     -0.200000000     -0.200000000    
 -0.200000000     -0.200000000     -0.200000000     -0.200000000     -0.200000000     -0.200000000       0.00000000    
   0.00000000     -0.200000000     -0.200000000     -0.200000000     -0.200000000     -0.200000000     -0.200000000     -0.200000000     -0.200000000     -0.200000000    
 -0.200000000     -0.200000000     -0.200000000     -0.200000000     -0.200000000     -0.200000000       0.00000000    
   0.00000000     -0.200000000     -0.200000000     -0.200000000     -0.200000000     -0.200000000     -0.200000000     -0.200000000     -0.200000000     -0.200000000    
 -0.200000000     -0.200000000     -0.200000000     -0.200000000     -0.200000000     -0.200000000       0.00000000    
   0.00000000     -0.200000000     -0.200000000     -0.200000000     -0.200000000     -0.200000000     -0.200000000     -0.200000000     -0.200000000     -0.200000000    
 -0.200000000     -0.200000000     -0.200000000     -0.200000000     -0.200000000     -0.200000000       0.00000000    
   0.00000000     -0.200000000     -0.200000000     -0.200000000     -0.200000000     -0.200000000     -0.200000000     -0.200000000     -0.200000000     -0.200000000    
 -0.200000000     -0.200000000     -0.200000000     -0.200000000     -0.200000000     -0.200000000       0.00000000    
   0.00000000     -0.200000000     -0.200000000     -0.200000000     -0.200000000     -0.200000000     -0.200000000     -0.200000000     -0.200000000     -0.200000000    
 -0.200000000     -0.200000000     -0.200000000     -0.200000000     -0.200000000     -0.200000000       0.00000000    
   0.00000000     -0.200000000     -0.200000000     -0.200000000     -0.200000000     -0.200000000     -0.200000000     -0.200000000     -0.200000000     -0.200000000    
 -0.200000000     -0.200000000     -0.200000000     -0.200000000     -0.200000000     -0.200000000       0.00000000    
   0.00000000     -0.200000000     -0.200000000     -0.200000000     -0.200000000     -0.200000000     -0.200000000     -0.200000000     -0.200000000     -0.200000000    
 -0.200000000     -0.200000000     -0.200000000     -0.200000000     -0.200000000     -0.200000000       0.00000000    
   0.00000000     -0.200000000     -0.200000000     -0.200000000     -0.200000000     -0.200000000     -0.200000000     -0.200000000     -0.200000000     -0.200000000    
 -0.200000000     -0.200000000     -0.200000000     -0.200000000     -0.200000000     -0.200000000       0.00000000    
   0.00000000     -0.200000000     -0.200000000     -0.200000000     -0.200000000     -0.200000000     -0.200000000     -0.200000000     -0.200000000     -0.200000000    
 -0.200000000     -0.200000000     -0.200000000     -0.200000000     -0.200000000     -0.200000000       0.00000000    
   0.00000000     -0.200000000     -0.200000000     -0.200000000     -0.200000000     -0.200000000     -0.200000000     -0.200000000     -0.200000000     -0.200000000    
 -0.200000000     -0.200000000     -0.200000000     -0.200000000     -0.200000000     -0.200000000       0.00000000    
   0.00000000     -0.200000000     -0.200000000     -0.200000000     -0.200000000     -0.200000000     -0.200000000     -0.200000000     -0.200000000     -0.200000000    
 -0.200000000     -0.200000000     -0.200000000     -0.200000000     -0.200000000     -0.200000000       0.00000000    
   0.00000000       0.00000000       0.00000000       0.00000000       0.00000000       0.00000000       0.00000000       0.00000000       0.00000000       0.00000000    
   0.00000000       0.00000000       0.00000000       0.00000000       0.00000000       0.00000000       0.00000000    
    INTERNAL  FACTOR  1.0  IPRN  12
   0.00000000       0.00000000       0.00000000       0.00000000       0.00000000       0.00000000       0.00000000       0.00000000       0.00000000       0.00000000    
   0.00000000       0.00000000       0.00000000       0.00000000       0.00000000       0.00000000       0.00000000    
   0.00000000     -0.200000000     -0.200000000     -0.200000000     -0.200000000     -0.200000000     -0.200000000     -0.200000000     -0.200000000     -0.200000000    
 -0.200000000     -0.200000000     -0.200000000     -0.200000000     -0.200000000     -0.200000000       0.00000000    
   0.00000000     -0.200000000     -0.200000000     -0.200000000     -0.200000000     -0.200000000     -0.200000000     -0.200000000     -0.200000000     -0.200000000    
 -0.200000000     -0.200000000     -0.200000000     -0.200000000     -0.200000000     -0.200000000       0.00000000    
   0.00000000     -0.200000000     -0.200000000     -0.200000000     -0.200000000     -0.200000000     -0.200000000     -0.200000000     -0.200000000     -0.200000000    
 -0.200000000     -0.200000000     -0.200000000     -0.200000000     -0.200000000     -0.200000000       0.00000000    
   0.00000000     -0.200000000     -0.200000000     -0.200000000     -0.200000000     -0.200000000     -0.200000000     -0.200000000     -0.200000000     -0.200000000    
 -0.200000000     -0.200000000     -0.200000000     -0.200000000     -0.200000000     -0.200000000       0.00000000    
   0.00000000     -0.200000000     -0.200000000     -0.200000000     -0.200000000     -0.200000000     -0.200000000     -0.200000000     -0.200000000     -0.200000000    
 -0.200000000     -0.200000000     -0.200000000     -0.200000000     -0.200000000     -0.200000000       0.00000000    
   0.00000000     -0.200000000     -0.200000000     -0.200000000     -0.200000000     -0.200000000     -0.200000000     -0.200000000     -0.200000000     -0.200000000    
 -0.200000000     -0.200000000     -0.200000000     -0.200000000     -0.200000000     -0.200000000       0.00000000    
   0.00000000     -0.200000000     -0.200000000     -0.200000000     -0.200000000     -0.200000000     -0.200000000     -0.200000000     -0.200000000     -0.200000000    
 -0.200000000     -0.200000000     -0.200000000     -0.200000000     -0.200000000     -0.200000000       0.00000000    
   0.00000000     -0.200000000     -0.200000000     -0.200000000     -0.200000000     -0.200000000     -0.200000000     -0.200000000     -0.200000000     -0.200000000    
 -0.200000000     -0.200000000     -0.200000000     -0.200000000     -0.200000000     -0.200000000       0.00000000    
   0.00000000     -0.200000000     -0.200000000     -0.200000000     -0.200000000     -0.200000000     -0.200000000     -0.200000000     -0.200000000     -0.200000000    
 -0.200000000     -0.200000000     -0.200000000     -0.200000000     -0.200000000     -0.200000000       0.00000000    
   0.00000000     -0.200000000     -0.200000000     -0.200000000     -0.200000000     -0.200000000     -0.200000000     -0.200000000     -0.200000000     -0.200000000    
 -0.200000000     -0.200000000     -0.200000000     -0.200000000     -0.200000000     -0.200000000       0.00000000    
   0.00000000     -0.200000000     -0.200000000     -0.200000000     -0.200000000     -0.200000000     -0.200000000     -0.200000000     -0.200000000     -0.200000000    
 -0.200000000     -0.200000000     -0.200000000     -0.200000000     -0.200000000     -0.200000000       0.00000000    
   0.00000000     -0.200000000     -0.200000000     -0.200000000     -0.200000000     -0.200000000     -0.200000000     -0.200000000     -0.200000000     -0.200000000    
 -0.200000000     -0.200000000     -0.200000000     -0.200000000     -0.200000000     -0.200000000       0.00000000    
   0.00000000     -0.200000000     -0.200000000     -0.200000000     -0.200000000     -0.200000000     -0.200000000     -0.200000000     -0.200000000     -0.200000000    
 -0.200000000     -0.200000000     -0.200000000     -0.200000000     -0.200000000     -0.200000000       0.00000000    
   0.00000000     -0.200000000     -0.200000000     -0.200000000     -0.200000000     -0.200000000     -0.200000000     -0.200000000     -0.200000000     -0.200000000    
 -0.200000000     -0.200000000     -0.200000000     -0.200000000     -0.200000000     -0.200000000       0.00000000    
   0.00000000     -0.200000000     -0.200000000     -0.200000000     -0.200000000     -0.200000000     -0.200000000     -0.200000000     -0.200000000     -0.200000000    
 -0.200000000     -0.200000000     -0.200000000     -0.200000000     -0.200000000     -0.200000000       0.00000000    
   0.00000000       0.00000000       0.00000000       0.00000000       0.00000000       0.00000000       0.00000000       0.00000000       0.00000000       0.00000000    
   0.00000000       0.00000000       0.00000000       0.00000000       0.00000000       0.00000000       0.00000000    
END GRIDDATA
