# sms8 input file, prepared by mf5to6 on 2/25/2016 at 16:36:36.

begin options
  print_option  summary
end options

begin nonlinear
  outer_dvclose   1e-6
  outer_maximum  1000
  under_relaxation  none
  under_relaxation_theta    0.000000    
  under_relaxation_kappa    0.000000    
  under_relaxation_gamma    0.000000    
  under_relaxation_momentum    0.000000    
end nonlinear

begin linear
  inner_maximum  100
  inner_dvclose   1e-6
  inner_rclose   1e-1    
  linear_acceleration  cg
  number_orthogonalizations  2
  reordering_method  none
  relaxation_factor 1.0
end linear
