# SMS8 input file, prepared by MF5to6 on 2/25/2016 at 16:36:36.

BEGIN Options
  PRINT_OPTION  SUMMARY
END Options

BEGIN Nonlinear
  OUTER_HCLOSE   1e-6
  OUTER_MAXIMUM  1000
  UNDER_RELAXATION  NONE
  UNDER_RELAXATION_THETA    0.000000    
  UNDER_RELAXATION_KAPPA    0.000000    
  UNDER_RELAXATION_GAMMA    0.000000    
  UNDER_RELAXATION_MOMENTUM    0.000000    
END Nonlinear

BEGIN LINEAR
  INNER_MAXIMUM  100
  INNER_HCLOSE   1e-6
  INNER_RCLOSE   1e-1    
  LINEAR_ACCELERATION  CG
  NUMBER_ORTHOGONALIZATIONS  2
  REORDERING_METHOD  NONE
  relaxation_factor 1.0
END LINEAR
