begin options
  digits 10
  print_input
end options

#
# Blocks defining continuous observations
#

begin continuous FILEOUT drn.obs.csv
  DRN1   DRN    1 6 16
  DRNA   DRN    DRN1
  MVR1   TO-MVR 1 6 16
  MVRA   TO-MVR DRN1
end continuous
