BEGIN OPTIONS
  PRINT_INPUT
  PRINT_FLOWS
  MOVER
  BOUNDNAMES
  OBS6 FILEIN  drn.obs
END OPTIONS

BEGIN DIMENSIONS
  MAXBOUND 1
END DIMENSIONS

BEGIN PERIOD 1
# cellid elev  cond
  1 6 16 -10.0 100.0 DRN1
END PERIOD
