BEGIN Options
  LIST       drnmvr.lst
END Options

BEGIN Packages
  DIS6       drnmvr.dis
  IC6        drnmvr.ic
  NPF6       drnmvr.npf
  OC6        drnmvr.oc
  DRN6       drnmvr.drn
  CHD6       drnmvr.ibound.chd  'CHD-FROM-IBOUND' 
  MAW6       drnmvr.maw
  MVR6       drnmvr.mvr
END Packages

