BEGIN OPTIONS
  FIXED_CELL
  SAVE_FLOWS
  PRINT_INPUT
END OPTIONS

#dimension block is required
BEGIN DIMENSIONS
  MAXBOUND 1
END DIMENSIONS

BEGIN PERIOD 1
  3 4.752000E-01
END PERIOD

