BEGIN DIMENSIONS
  NODES 38
  NJA 166
END DIMENSIONS

BEGIN GRIDDATA
  TOP
    INTERNAL
                    2000                 2000                 2000                 1800                 1800
                    1800                 1600                 1600                 1600                 1400
                    1400                 1400                 1200                 1200                 1000
                    1000                 1000                  800                  800                  800
                     600                  600                  600                  600                  600
                     600                  400                  400                  400                  400
                     400                  400                  200                  200                  200
                     200                  200                  200
  BOT
    INTERNAL
                    1800                 1800                 1800                 1600                 1600
                    1600                 1400                 1400                 1400                 1200
                    1200                 1200                 1000                 1000                  800
                     800                  800                  600                  600                  600
                     400                  400                  400                  400                  400
                     400                  200                  200                  200                  200
                     200                  200  -97.943685938050763  -180.87143427864825  -152.42753883062591
     -126.62373328063279  -129.01271538199103  -141.02637955398737
  AREA
    INTERNAL
                     200                  200                  200                  200                  200
                     200                  200                  200                  200                  200
                     200                  200                  200                  400                  200
                     200                  200                  200                  200                  200
                     100                  100                  100                  100                  100
                     100                  100                  100                  100                  100
                     100                  100                  100                  100                  100
                     100                  100                  100
END GRIDDATA

BEGIN CONNECTIONDATA
  IAC
    INTERNAL
                  3               4               3               4               5
                  4               4               5               4               4
                  5               4               4               6               4
                  5               4               5               6               5
                  4               5               5               5               5
                  4               4               5               5               5
                  5               4               3               4               4
                  4               4               3
  JA
    INTERNAL
                  1               2               4               2               1
                  3               5               3               2               6
                  4               1               5               7               5
                  2               4               6               8               6
                  3               5               9               7               4
                  8              10               8               5               7
                  9              11               9               6               8
                 12              10               7              11              13
                 11               8              10              12              14
                 12               9              11              14              13
                 10              14              15              14              11
                 12              13              16              17              15
                 13              16              18              16              14
                 15              17              19              17              14
                 16              20              18              15              19
                 21              22              19              16              18
                 20              23              24              20              17
                 19              25              26              21              18
                 22              27              22              18              21
                 23              28              23              19              22
                 24              29              24              19              23
                 25              30              25              20              24
                 26              31              26              20              25
                 32              27              21              28              33
                 28              22              27              29              34
                 29              23              28              30              35
                 30              24              29              31              36
                 31              25              30              32              37
                 32              26              31              38              33
                 27              34              34              28              33
                 35              35              29              34              36
                 36              30              35              37              37
                 31              36              38              38              32
                 37
  IHC
    INTERNAL
                  1               1               0               1               1
                  1               0               1               1               0
                  1               0               1               0               1
                  0               1               1               0               1
                  0               1               0               1               0
                  1               0               1               0               1
                  1               0               1               0               1
                  0               1               0               1               0
                  1               0               1               1               0
                  1               0               1               0               1
                  0               1               0               1               0
                  0               1               0               0               1
                  0               1               0               1               0
                  1               1               0               1               0
                  1               0               1               0               1
                  0               0               1               0               1
                  1               0               0               1               0
                  1               0               0               1               0
                  1               0               1               0               1
                  1               0               1               0               1
                  1               0               1               0               1
                  1               0               1               0               1
                  1               0               1               0               1
                  0               1               0               1               0
                  1               0               1               1               0
                  1               0               1               1               0
                  1               0               1               1               0
                  1               0               1               1               0
                  1               0               1               0               1
                  0               1               1               0               1
                  1               1               0               1               1
                  1               0               1               1               1
                  0               1               1               1               0
                  1
  CL12
    INTERNAL
                       0                  100                  100                    0                  100
                     100                  100                    0                  100                  100
                       0                  100                  100                  100                    0
                     100                  100                  100                  100                    0
                     100                  100                  100                    0                  100
                     100                  100                    0                  100                  100
                     100                  100                    0                  100                  100
                     100                    0                  100                  100                  100
                       0                  100                  100                  100                  100
                       0                  100                  100                  100                    0
                     100                  100                  100                    0                  100
                     100                  200                  100                  100                    0
                     100                  100                  100                    0                  100
                     100                  100                  100                    0                  100
                     100                  100                    0                  100                  100
                     100                  100                    0                  100                  100
                     100                  100                  100                    0                  100
                     100                  100                  100                    0                  100
                      50                  100                    0                  100                   50
                      50                  100                    0                  100                   50
                      50                  100                    0                  100                   50
                      50                  100                    0                  100                   50
                      50                  100                    0                  100                   50
                     100                    0                  100                   50                  100
                       0                  100                   50                   50                  100
                       0                  100                   50                   50                  100
                       0                  100                   50                   50                  100
                       0                  100                   50                   50                  100
                       0                  100                   50                  100                    0
      148.97184296902537                   50                    0   190.43571713932414                   50
                      50                    0   176.21376941531295                   50                   50
                       0    163.3118666403164                   50                   50                    0
      164.50635769099551                   50                   50                    0   170.51318977699367
                      50
  HWVA
    INTERNAL
                       0                    1                  200                    0                    1
                       1                  200                    0                    1                  200
                       0                  200                    1                  200                    0
                     200                    1                    1                  200                    0
                     200                    1                  200                    0                  200
                       1                  200                    0                  200                    1
                       1                  200                    0                  200                    1
                     200                    0                  200                    1                  200
                       0                  200                    1                    1                  200
                       0                  200                    1                  200                    0
                     200                    1                  200                    0                  200
                     200                    1                  200                  200                    0
                     200                    1                  200                    0                  200
                       1                    1                  200                    0                  200
                       1                  200                    0                  200                    1
                     100                  100                    0                  200                    1
                       1                  100                  100                    0                  200
                       1                  100                  100                    0                  100
                       1                  100                    0                  100                    1
                       1                  100                    0                  100                    1
                       1                  100                    0                  100                    1
                       1                  100                    0                  100                    1
                       1                  100                    0                  100                    1
                     100                    0                  100                    1                  100
                       0                  100                    1                    1                  100
                       0                  100                    1                    1                  100
                       0                  100                    1                    1                  100
                       0                  100                    1                    1                  100
                       0                  100                    1                  100                    0
                     100                    1                    0                  100                    1
                       1                    0                  100                    1                    1
                       0                  100                    1                    1                    0
                     100                    1                    1                    0                  100
                       1
END CONNECTIONDATA

