begin options
  SAVE_FLOWS
end options
#
BEGIN GRIDDATA
  icelltype
    constant 1

  k
    INTERNAL
       8.475839E-01   8.475839E-01   8.475839E-01
       8.475839E-01   8.475839E-01   8.475839E-01
       8.475839E-01   8.475839E-01   8.475839E-01
       8.475839E-01   8.475839E-01   8.475839E-01
       8.475839E-01   8.475840E-07
       8.475839E-01   8.475839E-01   8.475839E-01
       8.475839E-01   8.475839E-01   8.475839E-01
       8.475839E-01   8.475839E-01   8.475839E-01   8.475839E-01   8.475839E-01   8.475839E-01
       8.475839E-01   8.475839E-01   8.475839E-01   8.475839E-01   8.475839E-01   8.475839E-01
       8.475839E-01   8.475839E-01   8.475839E-01   8.475839E-01   8.475839E-01   8.475839E-01

END GRIDDATA




