# Simulation name file for MODFLOW 6 prepared by MF5to6

BEGIN Options
END Options

BEGIN Timing
  TDIS6  test020_mawconfined.tdis
END Timing

BEGIN Models
  GWF6  test020_mawconfined.nam  mawconf
END Models

BEGIN Exchanges
END Exchanges

BEGIN SOLUTIONGROUP 1
  MXITER  1
  IMS6  test020_mawconfined.ims  mawconf
END SOLUTIONGROUP
