# IC8 input file, prepared by MF5to6 on 8/3/2016 at 10:39:13.

BEGIN Options
END Options

BEGIN GRIDDATA
  STRT LAYERED
    CONSTANT    0.000000    
END GRIDDATA
