# NPF8 input file, prepared by MF5to6 on 8/3/2016 at 10:39:13.

BEGIN Options
  PERCHED
  VARIABLECV  DEWATERED
END Options

BEGIN GRIDDATA
  Icelltype LAYERED
    CONSTANT  0
  k  LAYERED
    CONSTANT    10.0000000    
  K33  LAYERED
    CONSTANT    10.0000000    
END GRIDDATA
