# MAW8 input file, prepared by MF5to6 on 8/3/2016 at 10:39:13.

BEGIN Options
  PRINT_INPUT
  PRINT_FLOWS
  BOUNDNAMES
  NO_WELL_STORAGE
END Options

BEGIN Dimensions
  NMAWWELLS  1
END Dimensions

BEGIN PACKAGEDATA
  1   0.15000000       -1000.0000        0.0000000      THEIM  1  WELL
END PACKAGEDATA

BEGIN CONNECTIONDATA
  1  1  1  51  51      0.0000000       -1000.0000        0.0000000        0.0000000    
END CONNECTIONDATA

BEGIN PERIOD 1 
  1  RATE   -2000.00000
END PERIOD
