# MODFLOW2005 Basic Package
#   

  CONSTANT         1 (FREE)                     -1     IBOUND Layer   1
 -1.0E+30
  CONSTANT    -3.50 (FREE)                       0     STARTING HEADS Layer   1
