begin options
  print_option summary
  complexity moderate
end options

begin nonlinear
  outer_dvclose 1.e-6
  #outer_maximum 40 
  #under_relaxation none
end nonlinear

begin linear
  inner_dvclose 1.0e-5
  inner_rclose 10000
  #inner_maximum 100
  #linear_acceleration bicgstab
  #scaling_method none
  #reordering_method none
  #relaxation_factor 0.97
end linear

