# Exported by MODFLOW Exporter from Aquaveo, the GMS developers.
# www.aquaveo.com/gms


BEGIN OPTIONS                           
  SAVE_FLOWS                            
END OPTIONS                             
                                        
BEGIN DIMENSIONS                        
  MAXBOUND 225                          
  NSEG 3                                
END DIMENSIONS                          
                                        
BEGIN PERIOD 1                          
      1     1     1         59.0         0.01          6.0          0.5          0.9          1.0          0.7
      1     1     2         59.0         0.01          6.0          0.4          0.8          0.9          0.6
      1     1     3         59.0         0.01          6.0          0.4          0.8          0.9          0.6
      1     1     4         59.0         0.01          6.0          0.4          0.8          0.9          0.6
      1     1     5         59.0         0.01          6.0          0.4          0.8          0.9          0.6
      1     1     6         59.0         0.01          6.0          0.4          0.8          0.9          0.6
      1     1     7         59.0         0.01          6.0          0.4          0.8          0.9          0.6
      1     1     8         59.0         0.01          6.0          0.4          0.8          0.9          0.6
      1     1     9         59.0         0.01          6.0          0.4          0.8          0.9          0.6
      1     1    10         59.0         0.01          6.0          0.4          0.8          0.9          0.6
      1     1    11         59.0         0.01          6.0          0.4          0.8          0.9          0.6
      1     1    12         59.0         0.01          6.0          0.4          0.8          0.9          0.6
      1     1    13         59.0         0.01          6.0          0.4          0.8          0.9          0.6
      1     1    14         59.0         0.01          6.0          0.4          0.8          0.9          0.6
      1     1    15         59.0         0.01          6.0          0.4          0.8          0.9          0.6
      1     2     1         59.0         0.01          6.0          0.4          0.8          0.9          0.6
      1     2     2         59.0         0.01          6.0          0.4          0.8          0.9          0.6
      1     2     3         59.0         0.01          6.0          0.4          0.8          0.9          0.6
      1     2     4         59.0         0.01          6.0          0.4          0.8          0.9          0.6
      1     2     5         59.0         0.01          6.0          0.4          0.8          0.9          0.6
      1     2     6         59.0         0.01          6.0          0.4          0.8          0.9          0.6
      1     2     7         59.0         0.01          6.0          0.4          0.8          0.9          0.6
      1     2     8         59.0         0.01          6.0          0.4          0.8          0.9          0.6
      1     2     9         59.0         0.01          6.0          0.4          0.8          0.9          0.6
      1     2    10         59.0         0.01          6.0          0.4          0.8          0.9          0.6
      1     2    11         59.0         0.01          6.0          0.4          0.8          0.9          0.6
      1     2    12         59.0         0.01          6.0          0.4          0.8          0.9          0.6
      1     2    13         59.0         0.01          6.0          0.4          0.8          0.9          0.6
      1     2    14         59.0         0.01          6.0          0.4          0.8          0.9          0.6
      1     2    15         59.0         0.01          6.0          0.4          0.8          0.9          0.6
      1     3     1         59.0         0.01          6.0          0.4          0.8          0.9          0.6
      2     3     2         59.0         0.01          6.0          0.4          0.8          0.9          0.6
      1     3     3         59.0         0.01          6.0          0.4          0.8          0.9          0.6
      1     3     4         59.0         0.01          6.0          0.4          0.8          0.9          0.6
      1     3     5         59.0         0.01          6.0          0.4          0.8          0.9          0.6
      1     3     6         59.0         0.01          6.0          0.4          0.8          0.9          0.6
      1     3     7         59.0         0.01          6.0          0.4          0.8          0.9          0.6
      1     3     8         59.0         0.01          6.0          0.4          0.8          0.9          0.6
      1     3     9         59.0         0.01          6.0          0.4          0.8          0.9          0.6
      1     3    10         59.0         0.01          6.0          0.4          0.8          0.9          0.6
      1     3    11         59.0         0.01          6.0          0.4          0.8          0.9          0.6
      1     3    12         59.0         0.01          6.0          0.4          0.8          0.9          0.6
      1     3    13         59.0         0.01          6.0          0.4          0.8          0.9          0.6
      1     3    14         59.0         0.01          6.0          0.4          0.8          0.9          0.6
      1     3    15         59.0         0.01          6.0          0.4          0.8          0.9          0.6
      1     4     1         59.0         0.01          6.0          0.4          0.8          0.9          0.6
      1     4     2         59.0         0.01          6.0          0.4          0.8          0.9          0.6
      1     4     3         59.0         0.01          6.0          0.4          0.8          0.9          0.6
      1     4     4         59.0         0.01          6.0          0.4          0.8          0.9          0.6
      1     4     5         59.0         0.01          6.0          0.4          0.8          0.9          0.6
      1     4     6         59.0         0.01          6.0          0.4          0.8          0.9          0.6
      1     4     7         59.0         0.01          6.0          0.4          0.8          0.9          0.6
      1     4     8         59.0         0.01          6.0          0.4          0.8          0.9          0.6
      1     4     9         59.0         0.01          6.0          0.4          0.8          0.9          0.6
      1     4    10         59.0         0.01          6.0          0.4          0.8          0.9          0.6
      1     4    11         59.0         0.01          6.0          0.4          0.8          0.9          0.6
      1     4    12         59.0         0.01          6.0          0.4          0.8          0.9          0.6
      1     4    13         59.0         0.01          6.0          0.4          0.8          0.9          0.6
      1     4    14         59.0         0.01          6.0          0.4          0.8          0.9          0.6
      1     4    15         59.0         0.01          6.0          0.4          0.8          0.9          0.6
      1     5     1         59.0         0.01          6.0          0.4          0.8          0.9          0.6
      1     5     2         59.0         0.01          6.0          0.4          0.8          0.9          0.6
      1     5     3         59.0         0.01          6.0          0.4          0.8          0.9          0.6
      1     5     4         59.0         0.01          6.0          0.4          0.8          0.9          0.6
      1     5     5         59.0         0.01          6.0          0.4          0.8          0.9          0.6
      1     5     6         59.0         0.01          6.0          0.4          0.8          0.9          0.6
      1     5     7         59.0         0.01          6.0          0.4          0.8          0.9          0.6
      1     5     8         59.0         0.01          6.0          0.4          0.8          0.9          0.6
      1     5     9         59.0         0.01          6.0          0.4          0.8          0.9          0.6
      1     5    10         59.0         0.01          6.0          0.4          0.8          0.9          0.6
      1     5    11         59.0         0.01          6.0          0.4          0.8          0.9          0.6
      1     5    12         59.0         0.01          6.0          0.4          0.8          0.9          0.6
      1     5    13         59.0         0.01          6.0          0.4          0.8          0.9          0.6
      1     5    14         59.0         0.01          6.0          0.4          0.8          0.9          0.6
      1     5    15         59.0         0.01          6.0          0.4          0.8          0.9          0.6
      1     6     1         59.0         0.01          6.0          0.4          0.8          0.9          0.6
      1     6     2         59.0         0.01          6.0          0.4          0.8          0.9          0.6
      1     6     3         59.0         0.01          6.0          0.4          0.8          0.9          0.6
      1     6     4         59.0         0.01          6.0          0.4          0.8          0.9          0.6
      1     6     5         59.0         0.01          6.0          0.4          0.8          0.9          0.6
      1     6     6         59.0         0.01          6.0          0.4          0.8          0.9          0.6
      1     6     7         59.0         0.01          6.0          0.4          0.8          0.9          0.6
      1     6     8         59.0         0.01          6.0          0.4          0.8          0.9          0.6
      1     6     9         59.0         0.01          6.0          0.4          0.8          0.9          0.6
      1     6    10         59.0         0.01          6.0          0.4          0.8          0.9          0.6
      1     6    11         59.0         0.01          6.0          0.4          0.8          0.9          0.6
      1     6    12         59.0         0.01          6.0          0.4          0.8          0.9          0.6
      1     6    13         59.0         0.01          6.0          0.4          0.8          0.9          0.6
      1     6    14         59.0         0.01          6.0          0.4          0.8          0.9          0.6
      1     6    15         59.0         0.01          6.0          0.4          0.8          0.9          0.6
      1     7     1         59.0         0.01          6.0          0.4          0.8          0.9          0.6
      1     7     2         59.0         0.01          6.0          0.4          0.8          0.9          0.6
      1     7     3         59.0         0.01          6.0          0.4          0.8          0.9          0.6
      1     7     4         59.0         0.01          6.0          0.4          0.8          0.9          0.6
      1     7     5         59.0         0.01          6.0          0.4          0.8          0.9          0.6
      1     7     6         59.0         0.01          6.0          0.4          0.8          0.9          0.6
      1     7     7         59.0         0.01          6.0          0.4          0.8          0.9          0.6
      1     7     8         59.0         0.01          6.0          0.4          0.8          0.9          0.6
      1     7     9         59.0         0.01          6.0          0.4          0.8          0.9          0.6
      1     7    10         59.0         0.01          6.0          0.4          0.8          0.9          0.6
      1     7    11         59.0         0.01          6.0          0.4          0.8          0.9          0.6
      1     7    12         59.0         0.01          6.0          0.4          0.8          0.9          0.6
      1     7    13         59.0         0.01          6.0          0.4          0.8          0.9          0.6
      1     7    14         59.0         0.01          6.0          0.4          0.8          0.9          0.6
      1     7    15         59.0         0.01          6.0          0.4          0.8          0.9          0.6
      1     8     1         59.0         0.01          6.0          0.4          0.8          0.9          0.6
      1     8     2         59.0         0.01          6.0          0.4          0.8          0.9          0.6
      1     8     3         59.0         0.01          6.0          0.4          0.8          0.9          0.6
      1     8     4         59.0         0.01          6.0          0.4          0.8          0.9          0.6
      1     8     5         59.0         0.01          6.0          0.4          0.8          0.9          0.6
      1     8     6         59.0         0.01          6.0          0.4          0.8          0.9          0.6
      1     8     7         59.0         0.01          6.0          0.4          0.8          0.9          0.6
      1     8     8         59.0         0.01          6.0          0.4          0.8          0.9          0.6
      1     8     9         59.0         0.01          6.0          0.4          0.8          0.9          0.6
      1     8    10         59.0         0.01          6.0          0.4          0.8          0.9          0.6
      1     8    11         59.0         0.01          6.0          0.4          0.8          0.9          0.6
      1     8    12         59.0         0.01          6.0          0.4          0.8          0.9          0.6
      1     8    13         59.0         0.01          6.0          0.4          0.8          0.9          0.6
      1     8    14         59.0         0.01          6.0          0.4          0.8          0.9          0.6
      1     8    15         59.0         0.01          6.0          0.4          0.8          0.9          0.6
      1     9     1         59.0         0.01          6.0          0.4          0.8          0.9          0.6
      1     9     2         59.0         0.01          6.0          0.4          0.8          0.9          0.6
      1     9     3         59.0         0.01          6.0          0.4          0.8          0.9          0.6
      1     9     4         59.0         0.01          6.0          0.4          0.8          0.9          0.6
      1     9     5         59.0         0.01          6.0          0.4          0.8          0.9          0.6
      1     9     6         59.0         0.01          6.0          0.4          0.8          0.9          0.6
      1     9     7         59.0         0.01          6.0          0.4          0.8          0.9          0.6
      1     9     8         59.0         0.01          6.0          0.4          0.8          0.9          0.6
      1     9     9         59.0         0.01          6.0          0.4          0.8          0.9          0.6
      1     9    10         59.0         0.01          6.0          0.4          0.8          0.9          0.6
      1     9    11         59.0         0.01          6.0          0.4          0.8          0.9          0.6
      1     9    12         59.0         0.01          6.0          0.4          0.8          0.9          0.6
      1     9    13         59.0         0.01          6.0          0.4          0.8          0.9          0.6
      1     9    14         59.0         0.01          6.0          0.4          0.8          0.9          0.6
      1     9    15         59.0         0.01          6.0          0.4          0.8          0.9          0.6
      1    10     1         59.0         0.01          6.0          0.4          0.8          0.9          0.6
      1    10     2         59.0         0.01          6.0          0.4          0.8          0.9          0.6
      1    10     3         59.0         0.01          6.0          0.4          0.8          0.9          0.6
      1    10     4         59.0         0.01          6.0          0.4          0.8          0.9          0.6
      1    10     5         59.0         0.01          6.0          0.4          0.8          0.9          0.6
      1    10     6         59.0         0.01          6.0          0.4          0.8          0.9          0.6
      1    10     7         59.0         0.01          6.0          0.4          0.8          0.9          0.6
      1    10     8         59.0         0.01          6.0          0.4          0.8          0.9          0.6
      1    10     9         59.0         0.01          6.0          0.4          0.8          0.9          0.6
      1    10    10         59.0         0.01          6.0          0.4          0.8          0.9          0.6
      1    10    11         59.0         0.01          6.0          0.4          0.8          0.9          0.6
      1    10    12         59.0         0.01          6.0          0.4          0.8          0.9          0.6
      1    10    13         59.0         0.01          6.0          0.4          0.8          0.9          0.6
      1    10    14         59.0         0.01          6.0          0.4          0.8          0.9          0.6
      1    10    15         59.0         0.01          6.0          0.4          0.8          0.9          0.6
      1    11     1         59.0         0.01          6.0          0.4          0.8          0.9          0.6
      1    11     2         59.0         0.01          6.0          0.4          0.8          0.9          0.6
      1    11     3         59.0         0.01          6.0          0.4          0.8          0.9          0.6
      1    11     4         59.0         0.01          6.0          0.4          0.8          0.9          0.6
      1    11     5         59.0         0.01          6.0          0.4          0.8          0.9          0.6
      1    11     6         59.0         0.01          6.0          0.4          0.8          0.9          0.6
      1    11     7         59.0         0.01          6.0          0.4          0.8          0.9          0.6
      1    11     8         59.0         0.01          6.0          0.4          0.8          0.9          0.6
      1    11     9         59.0         0.01          6.0          0.4          0.8          0.9          0.6
      1    11    10         59.0         0.01          6.0          0.4          0.8          0.9          0.6
      1    11    11         59.0         0.01          6.0          0.4          0.8          0.9          0.6
      1    11    12         59.0         0.01          6.0          0.4          0.8          0.9          0.6
      1    11    13         59.0         0.01          6.0          0.4          0.8          0.9          0.6
      1    11    14         59.0         0.01          6.0          0.4          0.8          0.9          0.6
      1    11    15         59.0         0.01          6.0          0.4          0.8          0.9          0.6
      1    12     1         59.0         0.01          6.0          0.4          0.8          0.9          0.6
      1    12     2         59.0         0.01          6.0          0.4          0.8          0.9          0.6
      1    12     3         59.0         0.01          6.0          0.4          0.8          0.9          0.6
      1    12     4         59.0         0.01          6.0          0.4          0.8          0.9          0.6
      1    12     5         59.0         0.01          6.0          0.4          0.8          0.9          0.6
      1    12     6         59.0         0.01          6.0          0.4          0.8          0.9          0.6
      1    12     7         59.0         0.01          6.0          0.4          0.8          0.9          0.6
      1    12     8         59.0         0.01          6.0          0.4          0.8          0.9          0.6
      1    12     9         59.0         0.01          6.0          0.4          0.8          0.9          0.6
      1    12    10         59.0         0.01          6.0          0.4          0.8          0.9          0.6
      1    12    11         59.0         0.01          6.0          0.4          0.8          0.9          0.6
      1    12    12         59.0         0.01          6.0          0.4          0.8          0.9          0.6
      1    12    13         59.0         0.01          6.0          0.4          0.8          0.9          0.6
      1    12    14         59.0         0.01          6.0          0.4          0.8          0.9          0.6
      1    12    15         59.0         0.01          6.0          0.4          0.8          0.9          0.6
      1    13     1         59.0         0.01          6.0          0.4          0.8          0.9          0.6
      1    13     2         59.0         0.01          6.0          0.4          0.8          0.9          0.6
      1    13     3         59.0         0.01          6.0          0.4          0.8          0.9          0.6
      1    13     4         59.0         0.01          6.0          0.4          0.8          0.9          0.6
      1    13     5         59.0         0.01          6.0          0.4          0.8          0.9          0.6
      1    13     6         59.0         0.01          6.0          0.4          0.8          0.9          0.6
      1    13     7         59.0         0.01          6.0          0.4          0.8          0.9          0.6
      1    13     8         59.0         0.01          6.0          0.4          0.8          0.9          0.6
      1    13     9         59.0         0.01          6.0          0.4          0.8          0.9          0.6
      1    13    10         59.0         0.01          6.0          0.4          0.8          0.9          0.6
      1    13    11         59.0         0.01          6.0          0.4          0.8          0.9          0.6
      1    13    12         59.0         0.01          6.0          0.4          0.8          0.9          0.6
      1    13    13         59.0         0.01          6.0          0.4          0.8          0.9          0.6
      1    13    14         59.0         0.01          6.0          0.4          0.8          0.9          0.6
      1    13    15         59.0         0.01          6.0          0.4          0.8          0.9          0.6
      1    14     1         59.0         0.01          6.0          0.4          0.8          0.9          0.6
      1    14     2         59.0         0.01          6.0          0.4          0.8          0.9          0.6
      1    14     3         59.0         0.01          6.0          0.4          0.8          0.9          0.6
      1    14     4         59.0         0.01          6.0          0.4          0.8          0.9          0.6
      1    14     5         59.0         0.01          6.0          0.4          0.8          0.9          0.6
      1    14     6         59.0         0.01          6.0          0.4          0.8          0.9          0.6
      2    14     7         59.0         0.01          6.0          0.4          0.8          0.9          0.6
      1    14     8         59.0         0.01          6.0          0.4          0.8          0.9          0.6
      1    14     9         59.0         0.01          6.0          0.4          0.8          0.9          0.6
      1    14    10         59.0         0.01          6.0          0.4          0.8          0.9          0.6
      1    14    11         59.0         0.01          6.0          0.4          0.8          0.9          0.6
      1    14    12         59.0         0.01          6.0          0.4          0.8          0.9          0.6
      1    14    13         59.0         0.01          6.0          0.4          0.8          0.9          0.6
      1    14    14         59.0         0.01          6.0          0.4          0.8          0.9          0.6
      1    14    15         59.0         0.01          6.0          0.4          0.8          0.9          0.6
      1    15     1         59.0         0.01          6.0          0.4          0.8          0.9          0.6
      1    15     2         59.0         0.01          6.0          0.4          0.8          0.9          0.6
      1    15     3         59.0         0.01          6.0          0.4          0.8          0.9          0.6
      1    15     4         59.0         0.01          6.0          0.4          0.8          0.9          0.6
      1    15     5         59.0         0.01          6.0          0.4          0.8          0.9          0.6
      1    15     6         59.0         0.01          6.0          0.4          0.8          0.9          0.6
      1    15     7         59.0         0.01          6.0          0.4          0.8          0.9          0.6
      1    15     8         59.0         0.01          6.0          0.4          0.8          0.9          0.6
      1    15     9         59.0         0.01          6.0          0.4          0.8          0.9          0.6
      1    15    10         59.0         0.01          6.0          0.4          0.8          0.9          0.6
      1    15    11         59.0         0.01          6.0          0.4          0.8          0.9          0.6
      1    15    12         59.0         0.01          6.0          0.4          0.8          0.9          0.6
      1    15    13         59.0         0.01          6.0          0.4          0.8          0.9          0.6
      1    15    14         59.0         0.01          6.0          0.4          0.8          0.9          0.6
      1    15    15         59.0         0.01          6.0          0.4          0.8          0.9          0.6
END PERIOD                              
                                        
BEGIN PERIOD 2                          
      2     1     1         58.0         0.01          6.0          0.5          0.9          1.0          0.7
      1     1     2         59.0         0.01          6.0          0.4          0.8          0.9          0.6
      1     1     3         59.0         0.01          6.0          0.4          0.8          0.9          0.6
      1     1     4         59.0         0.01          6.0          0.4          0.8          0.9          0.6
      1     1     5         59.0         0.01          6.0          0.4          0.8          0.9          0.6
      1     1     6         59.0         0.01          6.0          0.4          0.8          0.9          0.6
      1     1     7         59.0         0.01          6.0          0.4          0.8          0.9          0.6
      1     1     8         59.0         0.01          6.0          0.4          0.8          0.9          0.6
      1     1     9         59.0         0.01          6.0          0.4          0.8          0.9          0.6
      1     1    10         59.0         0.01          6.0          0.4          0.8          0.9          0.6
      1     1    11         59.0         0.01          6.0          0.4          0.8          0.9          0.6
      1     1    12         59.0         0.01          6.0          0.4          0.8          0.9          0.6
      1     1    13         59.0         0.01          6.0          0.4          0.8          0.9          0.6
      1     1    14         59.0         0.01          6.0          0.4          0.8          0.9          0.6
      1     1    15         59.0         0.01          6.0          0.4          0.8          0.9          0.6
      1     2     1         59.0         0.01          6.0          0.4          0.8          0.9          0.6
      1     2     2         59.0         0.01          6.0          0.4          0.8          0.9          0.6
      1     2     3         59.0         0.01          6.0          0.4          0.8          0.9          0.6
      1     2     4         59.0         0.01          6.0          0.4          0.8          0.9          0.6
      1     2     5         59.0         0.01          6.0          0.4          0.8          0.9          0.6
      1     2     6         59.0         0.01          6.0          0.4          0.8          0.9          0.6
      1     2     7         59.0         0.01          6.0          0.4          0.8          0.9          0.6
      1     2     8         59.0         0.01          6.0          0.4          0.8          0.9          0.6
      1     2     9         59.0         0.01          6.0          0.4          0.8          0.9          0.6
      1     2    10         59.0         0.01          6.0          0.4          0.8          0.9          0.6
      1     2    11         59.0         0.01          6.0          0.4          0.8          0.9          0.6
      1     2    12         59.0         0.01          6.0          0.4          0.8          0.9          0.6
      1     2    13         59.0         0.01          6.0          0.4          0.8          0.9          0.6
      1     2    14         59.0         0.01          6.0          0.4          0.8          0.9          0.6
      1     2    15         59.0         0.01          6.0          0.4          0.8          0.9          0.6
      1     3     1         59.0         0.01          6.0          0.4          0.8          0.9          0.6
      1     3     2         59.0         0.01          6.0          0.4          0.8          0.9          0.6
      1     3     3         59.0         0.01          6.0          0.4          0.8          0.9          0.6
      1     3     4         59.0         0.01          6.0          0.4          0.8          0.9          0.6
      1     3     5         59.0         0.01          6.0          0.4          0.8          0.9          0.6
      1     3     6         59.0         0.01          6.0          0.4          0.8          0.9          0.6
      1     3     7         59.0         0.01          6.0          0.4          0.8          0.9          0.6