BEGIN OPTIONS
  PRINT_OPTION SUMMARY
  COMPLEXITY MODERATE
END OPTIONS

BEGIN NONLINEAR
  OUTER_HCLOSE 1.E-6
  #OUTER_MAXIMUM 40 
  #UNDER_RELAXATION NONE
END NONLINEAR

BEGIN LINEAR
  INNER_HCLOSE 1.0E-5
  INNER_RCLOSE 10000
  #INNER_MAXIMUM 100
  #LINEAR_ACCELERATION BICGSTAB
  #SCALING_METHOD NONE
  #REORDERING_METHOD NONE
  #RELAXATION_FACTOR 0.97
END LINEAR

