# Multi-node well 2 (MNW2) file for MODFLOW, generated by Flopy
         1        -1         2 
well         1
THIEM          0         0         0         0
      0.15
         1          5          5
         1
well      -1.e-01
