# UPW for MODFLOW-NWT, generated by Flopy.
        53    -998.99         0         0 
         1
         0
         1
         0
         0
CONSTANT    1.000000E+00                           #hk Layer 1                    
CONSTANT    1.000000E+00                           #vka Layer 1                   
