# NWT for MODFLOW-NWT, generated by Flopy.
   1.0e-05   1.0e+00      2000   1.0e-05         2         1         1 SPECIFIED        0.9    0.0001         0       0.1         1 20 2. 0.6
         2         0         5         7         0         0         1    0.0001     1.0e-6       200
