# NPF8 input file, prepared by MF5to6 on 3/7/2016 at 12:39:51.

BEGIN Options
  REWET WETFCT 1.0 IWETIT 1 IHDWET 0
END Options

BEGIN GRIDDATA
  Icelltype LAYERED
    CONSTANT  0
  k  LAYERED
    CONSTANT    1.00000000    
  K33  LAYERED
    CONSTANT    0.10000000    
  WETDRY LAYERED
    CONSTANT  -0.200000000    
END GRIDDATA
