begin options
  SAVE_FLOWS
  #NEWTON
end options

BEGIN GRIDDATA
  iconvert
    constant 1
  ss
    constant 1.e-5
  sy
    constant 0.1
END GRIDDATA
