begin options
  digits 10
  print_input
end options

begin Continuous FILEOUT lakeex1a.lak.csv
  L1STAGE  STAGE 1
  L1VOL    VOLUME 1
end Continuous
