# OC8 input file, prepared by MF5to6 on 2/25/2016 at 16:36:36.

BEGIN Options
  HEAD FILEOUT  lakeex1a.hds
  HEAD PRINT_FORMAT  COLUMNS 10  WIDTH 6  DIGITS 1  FIXED
END Options

BEGIN PERIOD 1
  PRINT BUDGET FREQUENCY 10
  SAVE HEAD FREQUENCY 10
  PRINT HEAD FREQUENCY 10
END PERIOD
