begin options
  digits 10
  print_input
end options

#
# Blocks defining continuous observations
#

begin continuous FILEOUT lake0_embedded_gwf.csv
  edge        head  1  1  1
  o1          head  1  2  2
  center      head  1  3  3
end continuous

