# IC8 input file, prepared by MF5to6 on 3/7/2016 at 12:39:51.

BEGIN Options
END Options

BEGIN GRIDDATA
  STRT LAYERED
    CONSTANT     4.0000000        Initial head for layer 1
END GRIDDATA
