# sms8 input file, prepared by mf5to6 on 7/29/2016 at 10:56:36.

begin options
  print_option  summary
end options

begin nonlinear
  outer_dvclose   0.1000000e-02
  outer_maximum  200
  under_relaxation  dbd
  under_relaxation_theta    0.970000    
  under_relaxation_kappa    0.000010    
  under_relaxation_gamma    0.000000    
  under_relaxation_momentum    0.000000    
end nonlinear

begin linear
  inner_maximum  200
  inner_dvclose   0.1000000e-04
  inner_rclose   0.1000000    
  linear_acceleration  bicgstab
  #preconditioner_levels  7
  #preconditioner_drop_tolerance   0.1000000e-02
  #number_orthogonalizations  2
  #reordering_method  none
  relaxation_factor 0.99
end linear
