# DIS8 input file, prepared by MF5to6 on 7/29/2016 at 10:56:36.

BEGIN Options
  LENGTH_UNITS  FEET
END Options

BEGIN Dimensions
  NLAY  2
  NROW  15
  NCOL  10
END Dimensions

BEGIN GRIDDATA
  DELR
    CONSTANT    5000.00000        DELR
  DELC
    CONSTANT    5000.00000        DELC
  TOP LAYERED
    INTERNAL  FACTOR    1.000000      IPRN  3
   1105.000       1105.000       0.000000       0.000000       0.000000       0.000000       0.000000       0.000000       0.000000       0.000000    
   1105.000       1095.000       1105.000       0.000000       0.000000       1100.000       1100.000       1110.000       0.000000       0.000000    
   0.000000       1100.000       1085.000       1080.000       1078.000       1076.000       1073.000       1090.000       0.000000       0.000000    
   1110.000       1100.000       1090.000       1085.000       1076.000       1080.000       1080.000       1070.000       1100.000       0.000000    
   1110.000       1100.000       1085.000       1080.000       1078.000       1074.000       1077.000       1066.000       1075.000       1080.000    
   1105.000       1095.000       1080.000       1077.000       1073.000       1069.000       1070.000       1063.000       1085.000       1095.000    
   1105.000       1090.000       1075.000       1072.000       1070.000       1065.000       1065.000       1069.000       1090.000       0.000000    
   0.000000       1080.000       1070.000       1068.000       1063.000       1060.000       1063.000       1067.000       1090.000       0.000000    
   0.000000       1075.000       1065.000       1062.000       1058.000       1052.000       1055.000       1065.000       1090.000       0.000000    
   0.000000       1070.000       1060.000       1055.000       1046.000       1046.000       1044.000       1060.000       1088.000       1100.000    
   0.000000       1055.000       1050.000       1045.000       1041.000       1042.000       1040.000       1050.000       1075.000       0.000000    
   1027.000       1028.000       1028.000       1032.000       1032.000       1033.000       1032.000       1040.000       1060.000       0.000000    
   997.0000       1004.000       1008.000       1014.000       1020.000       1027.000       1032.000       1038.000       1050.000       0.000000    
   0.000000       1030.000       1040.000       1045.000       1050.000       1050.000       1050.000       1050.000       1044.000       0.000000    
   0.000000       0.000000       1080.000       1080.000       1080.000       1080.000       0.000000       0.000000       0.000000       0.000000    
  BOTM LAYERED
    INTERNAL  FACTOR    1.000000      IPRN  3
1055	1055	0	0	0	0	0	0	0	0
1055	1045	1055	0	0	1050	1050	1060	0	0
0	1050	1035	1030	1028	1026	1023	1040	0	0
1060	1050	1040	1035	1026	1030	1030	1020	1050	0
1060	1050	1035	1030	1028	1027	1027	1016	1025	1030
1055	1045	1030	1027	1023	1019	1020	1013	1035	1045
1055	1040	1025	1022	1020	1015	1015	1019	1040	0
0	1030	1020	1018	1013	1010	1013	1017	1040	0
0	1025	1015	1012	1008	1002	1005	1015	1040	0
0	1020	1010	1005	996	996	994	1010	1038	1050
0	1005	1000	995	991	992	990	1000	1025	0
977	978	978	982	982	983	982	990	1010	0
947	954	958	964	970	977	982	988	1000	0
0	980	990	995	1000	1000	1000	1000	994	0
0	0	1030	1030	1030	1030	0	0	0	0
    CONSTANT    300.0000    
  IDOMAIN LAYERED
    INTERNAL  FACTOR  1  IPRN  5    Idomain layer 1
    1    1    0    0    0    0    0    0    0    0
    1    1    1    0    0    1    1    1    0    0
    0    1    1    1    1    1    1    1    0    0
    1    1    1    1    1    1    1    1    1    0
    1    1    1    1    1    1    1    1    1    1
    1    1    1    1    1    1    1    1    1    1
    1    1    1    1    1    1    1    1    1    0
    0    1    1    1    1    1    1    1    1    0
    0    1    1    1    1    1    1    1    1    0
    0    1    1    1    1    1    0    0    1    1
    0    1    0    0    0    1    0    0    1    0
    1    1    0    0    0    1    1    1    1    0
    1    1    0    0    0    1    1    1    1    0
    0    1    0    0    0    1    1    1    1    0
    0    0    1    1    1    1    0    0    0    0
    INTERNAL  FACTOR  1  IPRN  5    Idomain layer 2
    1    1    0    0    0    0    0    0    0    0
    1    1    1    0    0    1    1    1    0    0
    0    1    1    1    1    1    1    1    0    0
    1    1    1    1    1    1    1    1    1    0
    1    1    1    1    1    1    1    1    1    1
    1    1    1    1    1    1    1    1    1    1
    1    1    1    1    1    1    1    1    1    0
    0    1    1    1    1    1    1    1    1    0
    0    1    1    1    1    1    1    1    1    0
    0    1    1    1    1    1    1    1    1    1
    0    1    1    1    1    1    1    1    1    0
    1    1    1    1    1    1    1    1    1    0
    1    1    1    1    1    1    1    1    1    0
    0    1    1    1    1    1    1    1    1    0
    0    0    1    1    1    1    0    0    0    0
END GRIDDATA
