# MVR6 input file, prepared by MF5to6 on 7/29/2016 at 10:56:36.

BEGIN Options
  PRINT_INPUT
  PRINT_FLOWS
  BUDGET FILEOUT mvr.cbc
END Options

BEGIN Dimensions
  MAXMVR  104
  MAXPACKAGES  3
END Dimensions

BEGIN Packages
  SFR_1
  LAK_1
  UZF_1
END Packages

BEGIN Period 1
  SFR_1  23  LAK_1   1  FACTOR  1.000000000000000
  LAK_1   1  SFR_1  24  FACTOR  1.000000000000000
  SFR_1  29  LAK_1   2  FACTOR  1.000000000000000
  LAK_1   2  SFR_1  30  FACTOR  1.000000000000000
  UZF_1   1  SFR_1   1  FACTOR  1.000000000000000
  UZF_1   2  SFR_1   2  FACTOR  1.000000000000000
  UZF_1   3  SFR_1   2  FACTOR  1.000000000000000
  UZF_1   4  SFR_1   2  FACTOR  1.000000000000000
  UZF_1   5  SFR_1   3  FACTOR  1.000000000000000
  UZF_1   6  SFR_1  11  FACTOR  1.000000000000000
  UZF_1   7  SFR_1  12  FACTOR  1.000000000000000
  UZF_1   8  SFR_1  12  FACTOR  1.000000000000000
  UZF_1   9  SFR_1   2  FACTOR  1.000000000000000
  UZF_1  10  SFR_1   3  FACTOR  1.000000000000000
  UZF_1  11  SFR_1   4  FACTOR  1.000000000000000
  UZF_1  12  SFR_1  10  FACTOR  1.000000000000000
  UZF_1  13  SFR_1  11  FACTOR  1.000000000000000
  UZF_1  14  SFR_1  12  FACTOR  1.000000000000000
  UZF_1  15  SFR_1  13  FACTOR  1.000000000000000
  UZF_1  16  LAK_1   2  FACTOR  1.000000000000000
  UZF_1  17  LAK_1   2  FACTOR  1.000000000000000
  UZF_1  18  SFR_1   3  FACTOR  1.000000000000000
  UZF_1  19  SFR_1   4  FACTOR  1.000000000000000
  UZF_1  20  SFR_1   5  FACTOR  1.000000000000000
  UZF_1  21  SFR_1   6  FACTOR  1.000000000000000
  UZF_1  22  SFR_1   6  FACTOR  1.000000000000000
  UZF_1  23  SFR_1  13  FACTOR  1.000000000000000
  UZF_1  24  SFR_1  17  FACTOR  1.000000000000000
  UZF_1  25  LAK_1   2  FACTOR  1.000000000000000
  UZF_1  26  LAK_1   2  FACTOR  1.000000000000000
  UZF_1  27  LAK_1   2  FACTOR  1.000000000000000
  UZF_1  28  LAK_1   2  FACTOR  1.000000000000000
  UZF_1  29  SFR_1   5  FACTOR  1.000000000000000
  UZF_1  30  SFR_1   6  FACTOR  1.000000000000000
  UZF_1  31  SFR_1   6  FACTOR  1.000000000000000
  UZF_1  32  SFR_1  14  FACTOR  1.000000000000000
  UZF_1  33  SFR_1  17  FACTOR  1.000000000000000
  UZF_1  34  SFR_1  16  FACTOR  1.000000000000000
  UZF_1  35  LAK_1   2  FACTOR  1.000000000000000
  UZF_1  36  LAK_1   2  FACTOR  1.000000000000000
  UZF_1  37  LAK_1   2  FACTOR  1.000000000000000
  UZF_1  38  LAK_1   2  FACTOR  1.000000000000000
  UZF_1  39  LAK_1   2  FACTOR  1.000000000000000
  UZF_1  40  SFR_1   7  FACTOR  1.000000000000000
  UZF_1  41  SFR_1   7  FACTOR  1.000000000000000
  UZF_1  42  SFR_1  19  FACTOR  1.000000000000000
  UZF_1  43  SFR_1  17  FACTOR  1.000000000000000
  UZF_1  44  SFR_1  16  FACTOR  1.000000000000000
  UZF_1  45  LAK_1   2  FACTOR  1.000000000000000
  UZF_1  46  LAK_1   2  FACTOR  1.000000000000000
  UZF_1  47  LAK_1   2  FACTOR  1.000000000000000
  UZF_1  48  LAK_1   2  FACTOR  1.000000000000000
  UZF_1  49  LAK_1   2  FACTOR  1.000000000000000
  UZF_1  50  SFR_1   8  FACTOR  1.000000000000000
  UZF_1  51  SFR_1  20  FACTOR  1.000000000000000
  UZF_1  52  SFR_1  20  FACTOR  1.000000000000000
  UZF_1  53  SFR_1  20  FACTOR  1.000000000000000
  UZF_1  54  LAK_1   2  FACTOR  1.000000000000000
  UZF_1  55  LAK_1   2  FACTOR  1.000000000000000
  UZF_1  56  LAK_1   2  FACTOR  1.000000000000000
  UZF_1  57  LAK_1   2  FACTOR  1.000000000000000
  UZF_1  58  SFR_1   9  FACTOR  1.000000000000000
  UZF_1  59  SFR_1  21  FACTOR  1.000000000000000
  UZF_1  60  SFR_1  21  FACTOR  1.000000000000000
  UZF_1  61  SFR_1  21  FACTOR  1.000000000000000
  UZF_1  62  LAK_1   2  FACTOR  1.000000000000000
  UZF_1  63  LAK_1   2  FACTOR  1.000000000000000
  UZF_1  64  LAK_1   2  FACTOR  1.000000000000000
  UZF_1  65  LAK_1   2  FACTOR  1.000000000000000
  UZF_1  66  SFR_1  23  FACTOR  1.000000000000000
  UZF_1  67  LAK_1   1  FACTOR  1.000000000000000
  UZF_1  68  LAK_1   1  FACTOR  1.000000000000000
  UZF_1  69  LAK_1   1  FACTOR  1.000000000000000
  UZF_1  70  LAK_1   2  FACTOR  1.000000000000000
  UZF_1  71  LAK_1   2  FACTOR  1.000000000000000
  UZF_1  72  LAK_1   2  FACTOR  1.000000000000000
  UZF_1  73  LAK_1   2  FACTOR  1.000000000000000
  UZF_1  74  LAK_1   1  FACTOR  1.000000000000000
  UZF_1  75  LAK_1   1  FACTOR  1.000000000000000
  UZF_1  76  LAK_1   1  FACTOR  1.000000000000000
  UZF_1  77  LAK_1   2  FACTOR  1.000000000000000
  UZF_1  78  SFR_1   9  FACTOR  1.000000000000000
  UZF_1  79  LAK_1   1  FACTOR  1.000000000000000
  UZF_1  80  SFR_1  31  FACTOR  1.000000000000000
  UZF_1  81  SFR_1  30  FACTOR  1.000000000000000
  UZF_1  82  SFR_1   9  FACTOR  1.000000000000000
  UZF_1  83  SFR_1  24  FACTOR  1.000000000000000
  UZF_1  84  LAK_1   1  FACTOR  1.000000000000000
  UZF_1  85  LAK_1   1  FACTOR  1.000000000000000
  UZF_1  86  SFR_1  31  FACTOR  1.000000000000000
  UZF_1  87  SFR_1  30  FACTOR  1.000000000000000
  UZF_1  88  SFR_1  29  FACTOR  1.000000000000000
  UZF_1  89  SFR_1  28  FACTOR  1.000000000000000
  UZF_1  90  SFR_1  27  FACTOR  1.000000000000000
  UZF_1  91  SFR_1  26  FACTOR  1.000000000000000
  UZF_1  92  SFR_1  30  FACTOR  1.000000000000000
  UZF_1  93  LAK_1   2  FACTOR  1.000000000000000
  UZF_1  94  SFR_1  28  FACTOR  1.000000000000000
  UZF_1  95  SFR_1  27  FACTOR  1.000000000000000
  UZF_1  96  SFR_1  26  FACTOR  1.000000000000000
  UZF_1  97  LAK_1   2  FACTOR  1.000000000000000
  UZF_1  98  LAK_1   2  FACTOR  1.000000000000000
  UZF_1  99  LAK_1   2  FACTOR  1.000000000000000
  UZF_1 100  LAK_1  2  FACTOR  1.000000000000000
END Period
